24
Properties=species:S:1:pos:R:3:forces:R:3 energy=-27552.893081450664 free_energy=-27552.893081450664 stress="-9.8065887026519e-09 1.226547438149332e-09 -2.6465353554771864e-09 1.226547438149332e-09 1.1549361746514825e-08 -8.31604455673067e-10 -2.6465353554771864e-09 -8.31604455673067e-10 3.4681944614646344e-10" pbc="F F F"
C        0.72428586       1.25289622       0.03093742       0.00224717       0.00407175      -0.00449631
C        1.42871152       0.00061259      -0.06208186       0.00016893      -0.00003562      -0.00053842
C       -0.71114656       1.23129975       0.02823473      -0.00021336       0.00241582      -0.00320039
N        1.37699786       2.39495644       0.08465257       0.00260134       0.00234632      -0.00285499
C        0.72470091      -1.25215621       0.02471311      -0.00011213       0.00028935      -0.00443560
N        2.85664327      -0.00015128      -0.19503282      -0.00259992      -0.00372133      -0.00423451
C       -0.71018844      -1.23014714       0.03712106      -0.00061562      -0.00170601      -0.00402511
N        1.37770428      -2.39492003       0.07133075       0.00221188      -0.00354986      -0.00216454
C       -1.44568385      -0.00005075      -0.04425662       0.00026271       0.00073588       0.00162108
N       -1.42849845      -2.47322344       0.09991534       0.00058086      -0.00105616       0.00372392
N       -2.76027639      -0.00084381      -0.12479193       0.00765622      -0.00177251       0.00027060
N       -1.43028350       2.47438210       0.07437415      -0.00334601      -0.00000869       0.00160717
O        3.46576031      -1.06042678      -0.33090089      -0.00158554       0.00018644       0.00332200
O        3.48336993       1.05848624      -0.19024401      -0.00244885      -0.00011361       0.00587549
O       -2.61224270      -2.51935238      -0.22698079      -0.00448078      -0.00415500       0.00251377
O       -0.86087695      -3.49268979       0.48627155       0.00112276       0.00619407      -0.00058452
O       -2.61401910       2.51488460      -0.25411390      -0.00442683       0.00535257       0.00135434
O       -0.86477593       3.50033298       0.44651106       0.00184122      -0.00434076       0.00046258
H        0.83872476       3.23628437       0.21552433       0.00084540      -0.00004319       0.00307859
H        2.38314419       2.35646543       0.03509791       0.00391220      -0.00644248       0.00190817
H        0.84174156      -3.23571641       0.21377827       0.00286366       0.00200374       0.00367899
H        2.38096134      -2.36045783      -0.01910394       0.00001388       0.00540438      -0.00056268
H       -3.22234801       0.89079548      -0.20642105      -0.00443325      -0.00504812      -0.00077533
H       -3.22248839      -0.89293053      -0.19904041      -0.00206594       0.00299304      -0.00154427
24
Properties=species:S:1:pos:R:3:forces:R:3 energy=-27550.121918918965 free_energy=-27550.121918918965 stress="4.999927166282038e-07 5.833583191043704e-10 -2.0364341808709404e-08 5.833583191043704e-10 -1.088483888783019e-08 3.0619889183538955e-10 -2.0364341808709404e-08 3.0619889183538955e-10 -8.691237567525038e-09" pbc="F F F"
C        0.69388603       1.20151946       0.11415423       0.02263057      -0.00107908       0.00110281
C        1.39915449      -0.00125273       0.19816102       0.02690562       0.00034493       0.00034105
C       -0.75140989       1.23189069       0.03118598       0.02034348       0.00033500       0.00091258
N        1.43110612       2.31670866       0.06125766       0.01982799       0.00220529       0.00267063
C        0.69322792      -1.20269809       0.10849078       0.02278752       0.00018083       0.00095852
N        4.07995014       0.01116099      -0.62055804      -0.06549261       0.00240200      -0.09984229
C       -0.75260449      -1.23225497       0.03832113       0.02032586      -0.00034896       0.00047435
N        1.42925197      -2.31777416       0.03476347       0.01901551      -0.00196446       0.00307953
C       -1.49057827      -0.00022384      -0.02087465       0.02327795       0.00001421       0.00257525
N       -1.43987692      -2.48452942       0.06238011       0.01793242      -0.00211290      -0.00527441
N       -2.81426004      -0.00035824      -0.09444129       0.02089286       0.00011783       0.00448563
N       -1.43877206       2.48430707       0.04002580       0.01816742       0.00220663      -0.00414540
O        4.32797703      -1.07103644      -0.10654419      -0.17827034      -0.00970992       0.06288339
O        4.33035366       1.06678032      -0.05508442      -0.18333303       0.00769730       0.05448104
O       -2.63955981      -2.54083317      -0.21033070       0.01986661       0.00489690       0.00249130
O       -0.82348701      -3.50384132       0.36104674       0.01778535      -0.00314002      -0.01835472
O       -2.63709540       2.53752457      -0.23926928       0.02020180      -0.00442311       0.00261554
O       -0.82448410       3.50716884       0.33098586       0.01785878       0.00241400      -0.01569270
H        1.01982619       3.22719505       0.10704433       0.01590276      -0.00008476      -0.00847371
H        2.43644532       2.18063280       0.07081173       0.01985137       0.00192103       0.00350738
H        1.01930659      -3.22848986       0.08781770       0.01569620      -0.00005713      -0.00856979
H        2.43462215      -2.18182806       0.03368071       0.02033120      -0.00228425       0.00504794
H       -3.27505261       0.88933854      -0.17254799       0.02383174       0.00094436       0.00636298
H       -3.27498864      -0.89077688      -0.16498268       0.02366296      -0.00047573       0.00636309
24
Properties=species:S:1:pos:R:3:forces:R:3 energy=-27549.95887405226 free_energy=-27549.95887405226 stress="1.7068219178591354e-07 -2.874048335468852e-11 -6.564367545301076e-09 -2.874048335468852e-11 -1.439907588200234e-09 6.667302831932322e-11 -6.564367545301076e-09 6.667302831932322e-11 2.702966175799261e-09" pbc="F F F"
C        0.72690418       1.20392033       0.04217328       0.00890676       0.00089206       0.00059164
C        1.41659393       0.00001238       0.04161711       0.00676267      -0.00004550       0.00397312
C       -0.71922441       1.23243467       0.01566884       0.00892521       0.00071167       0.00006885
N        1.46799372       2.32267386       0.03019773       0.01169256      -0.00098350      -0.00133186
C        0.72707200      -1.20362728       0.03779890       0.00886679      -0.00094741       0.00040036
N        4.67990841      -0.00009092      -0.14460622      -0.07001698      -0.00000824       0.00660193
C       -0.71918827      -1.23195564       0.02196374       0.00888973      -0.00078343      -0.00032681
N        1.46734388      -2.32287037       0.00815832       0.01171010       0.00098387      -0.00140175
C       -1.45470981      -0.00005469      -0.02550738       0.00952309       0.00000642       0.00183806
N       -1.40275066      -2.48559390       0.06337157       0.00931206      -0.00156500      -0.00332287
N       -2.78458886      -0.00041895      -0.07142209       0.00956108       0.00005600       0.00434349
N       -1.40347415       2.48604888       0.04384342       0.00942449       0.00148624      -0.00252493
O        5.25672826      -1.07106078      -0.21299953      -0.07029986      -0.00016198       0.01272098
O        5.26219877       1.07008248      -0.15124712      -0.07170902       0.00035524       0.00309899
O       -2.60625613      -2.54787338      -0.18716159       0.00792274      -0.00000143       0.00302749
O       -0.77529912      -3.50257478       0.35218165       0.01098387      -0.00222267      -0.01262327
O       -2.60618215       2.54521669      -0.21129493       0.00807440       0.00017772       0.00351984
O       -0.77785898       3.50639703       0.32481697       0.01111799       0.00187802      -0.01115063
H        1.06011561       3.23002463       0.13572780       0.01419965       0.00068157      -0.00756084
H        2.46692560       2.18214979       0.03786589       0.01147510      -0.00406371      -0.00242649
H        1.06110637      -3.23000624       0.12165927       0.01408735      -0.00072904      -0.00802642
H        2.46638856      -2.18296667       0.00669722       0.01146307       0.00411332      -0.00196752
H       -3.24849472       0.88728911      -0.14514575       0.00958946       0.00030255       0.00632480
H       -3.24814281      -0.88882646      -0.13886308       0.00953769      -0.00013278       0.00615386
24
Properties=species:S:1:pos:R:3:forces:R:3 energy=-27549.70810007014 free_energy=-27549.70810007014 stress="1.991967341019404e-07 1.0080737750275079e-10 -6.149820056164244e-09 1.0080737750275079e-10 -1.591771544609252e-10 7.0819559948011646e-12 -6.149820056164244e-09 7.0819559948011646e-12 1.1016039067878249e-09" pbc="F F F"
C        0.74509321       1.19432478       0.03627408       0.01505925       0.00001815      -0.00070241
C        1.45525586       0.00023457       0.02906473       0.01569807       0.00003432      -0.00052348
C       -0.70560369       1.22743732       0.01188523       0.01471824      -0.00004931      -0.00041551
N        1.45968026       2.33122899       0.03056805       0.01506605      -0.00010728      -0.00055418
C        0.74546113      -1.19380832       0.03348718       0.01508181       0.00002266      -0.00061174
N        5.56000362       0.00004645      -0.14604477      -0.10388922      -0.00007913       0.00400132
C       -0.70535766      -1.22702326       0.01851110       0.01474157       0.00002274      -0.00056778
N        1.45967036      -2.33103828       0.01322243       0.01517961       0.00020162       0.00003845
C       -1.44414384      -0.00009830      -0.02604690       0.01475969       0.00000250       0.00103221
N       -1.38962761      -2.47733632       0.05649191       0.01464927       0.00003181      -0.00262635
N       -2.77560626      -0.00045304      -0.06463027       0.01452158       0.00001942       0.00358548
N       -1.39062333       2.47764049       0.03778495       0.01464202      -0.00008337      -0.00219125
O        6.14481415      -1.06983171      -0.22651146      -0.10338906       0.00006064       0.00729749
O        6.15434763       1.06764216      -0.13399087      -0.10385967      -0.00022239       0.00557318
O       -2.59674118      -2.53609112      -0.18010174       0.01392997       0.00072690       0.00086265
O       -0.76573765      -3.50339773       0.32812575       0.01536016      -0.00115070      -0.00804730
O       -2.59691071       2.53363148      -0.20370198       0.01395861      -0.00064461       0.00097779
O       -0.76855657       3.50655721       0.30285369       0.01531877       0.00093749      -0.00704092
H        1.02363194       3.22590106       0.13933479       0.01469661       0.00012883      -0.00356670
H        2.45897185       2.22111809       0.04916847       0.01516096      -0.00026149      -0.00130052
H        1.02515253      -3.22556134       0.12916865       0.01473914      -0.00008658      -0.00345438
H        2.45911789      -2.22121402       0.02456830       0.01524758       0.00041922      -0.00066071
H       -3.23997178       0.88682634      -0.13521168       0.01431158       0.00000140       0.00445480
H       -3.23963404      -0.88840570      -0.12877561       0.01429742       0.00005718       0.00443986
24
Properties=species:S:1:pos:R:3:forces:R:3 energy=-27549.57306020264 free_energy=-27549.57306020264 stress="2.0726348035998594e-08 -4.2405885698247746e-11 -6.198961305578599e-10 -4.2405885698247746e-11 -3.494514699934574e-10 9.058440130532414e-12 -6.198961305578599e-10 9.058440130532414e-12 4.557737459299985e-10" pbc="F F F"
C        0.70044688       1.19459404       0.04070483       0.00190864       0.00000139       0.00094788
C        1.40426791       0.00002928       0.04184380       0.00178169      -0.00000466       0.00247909
C       -0.74902308       1.22924827       0.01339260       0.00178440       0.00011981       0.00015121
N        1.41764147       2.33059902       0.03185696       0.00217497      -0.00014939       0.00077972
C        0.70063979      -1.19435063       0.03783305       0.00189666      -0.00002937       0.00103172
N        6.44548022       0.00022158      -0.14184689      -0.01354087       0.00001625       0.00133996
C       -0.74893831      -1.22897660       0.01977766       0.00176947      -0.00015551       0.00005610
N        1.41741740      -2.33070332       0.01416568       0.00220771       0.00015768       0.00120606
C       -1.48682929      -0.00010821      -0.02343890       0.00186533      -0.00000390       0.00112610
N       -1.43171286      -2.47997795       0.05283431       0.00186372      -0.00025512      -0.00231968
N       -2.81684120      -0.00039316      -0.06254171       0.00184852       0.00001950       0.00265813
N       -1.43237642       2.48017717       0.03488031       0.00192067       0.00020830      -0.00202666
O        7.02813132      -1.07066117      -0.23496443      -0.01352345       0.00004785       0.00079716
O        7.03808818       1.06967933      -0.14687067      -0.01354836       0.00004208       0.00034453
O       -2.64118455      -2.53622211      -0.17158137       0.00129152       0.00048621       0.00051348
O       -0.80553812      -3.50827182       0.30786454       0.00235177      -0.00112096      -0.00738767
O       -2.64114232       2.53396580      -0.19393607       0.00135017      -0.00042340       0.00069256
O       -0.80774038       3.51104777       0.28335451       0.00243258       0.00095382      -0.00679933
H        0.98341297       3.22687061       0.13319593       0.00218790       0.00017747      -0.00257689
H        2.41513575       2.21956613       0.05495734       0.00209100      -0.00046880       0.00101710
H        0.98463384      -3.22670810       0.12382861       0.00215376      -0.00019141      -0.00235786
H        2.41507357      -2.21992944       0.03134396       0.00211407       0.00050634       0.00156134
H       -3.27989133       0.88798461      -0.12864667       0.00182097       0.00008717       0.00340081
H       -3.27963205      -0.88935129      -0.12251338       0.00179715      -0.00002134       0.00336515
24
Properties=species:S:1:pos:R:3:forces:R:3 energy=-27549.50483766004 free_energy=-27549.50483766004 stress="8.620421154510217e-09 1.2629139173022976e-11 -2.1460609331595129e-10 1.2629139173022976e-11 -1.5343137993536713e-10 2.10085382812538e-13 -2.1460609331595129e-10 2.10085382812538e-13 1.8672475768056526e-10" pbc="F F F"
C        0.69648012       1.19436371       0.03821755       0.00094643       0.00003060       0.00078322
C        1.40108660       0.00013048       0.04138536       0.00089927       0.00003046       0.00201694
C       -0.75324898       1.22960367       0.01186412       0.00089605       0.00006756       0.00011352
N        1.41234878       2.33098764       0.02843033       0.00110111      -0.00008446       0.00056989
C        0.69676955      -1.19400978       0.03533330       0.00096828      -0.00000224       0.00085268
N        7.34067944       0.00034866      -0.13197195      -0.00684593       0.00005379       0.00067836
C       -0.75305418      -1.22938749       0.01760714       0.00091834      -0.00007935       0.00002895
N        1.41245932      -2.33082234       0.01154221       0.00118495       0.00015208       0.00091856
C       -1.49078065      -0.00012387      -0.02135184       0.00094384      -0.00000739       0.00087819
N       -1.43591887      -2.48092707       0.04699821       0.00096353      -0.00014567      -0.00183322
N       -2.82066209      -0.00040729      -0.05585771       0.00090436      -0.00000836       0.00225742
N       -1.43673333       2.48100452       0.03075508       0.00093786       0.00010621      -0.00158151
O        7.91950384      -1.07218505      -0.21562485      -0.00717623      -0.00008905       0.00021975
O        7.92986982       1.07045915      -0.13897185      -0.00661293      -0.00007931      -0.00005242
O       -2.64818347      -2.53449581      -0.16099418       0.00071559       0.00029243      -0.00045320
O       -0.80697509      -3.51219255       0.28225548       0.00121286      -0.00068326      -0.00496652
O       -2.64831827       2.53241825      -0.18171286       0.00067932      -0.00029641      -0.00021107
O       -0.80928506       3.51445358       0.26050836       0.00118922       0.00059077      -0.00454849
H        0.97534495       3.22682815       0.12363418       0.00109109       0.00015409      -0.00167524
H        2.41010563       2.22457531       0.05402956       0.00104923      -0.00021310       0.00089784
H        0.97683755      -3.22649322       0.11452659       0.00115253      -0.00010700      -0.00146981
H        2.41036943      -2.22446168       0.03207808       0.00112315       0.00032762       0.00134939
H       -3.28349922       0.88855015      -0.11643714       0.00087533       0.00000746       0.00264390
H       -3.28322018      -0.88988729      -0.11074915       0.00088276      -0.00001745       0.00258286
24
Properties=species:S:1:pos:R:3:forces:R:3 energy=-27549.503468511604 free_energy=-27549.503468511604 stress="-7.168508911581961e-11 -3.3445280855324796e-12 -4.362301546477035e-12 -3.3445280855324796e-12 -6.089750051539385e-11 8.353671450868161e-13 -4.362301546477035e-12 8.353671450868161e-13 7.558731062445272e-11" pbc="F F F"
C        0.69241108       1.19445234       0.03622546      -0.00001023      -0.00000120       0.00060630
C        1.39685188       0.00003522       0.04036071      -0.00005315       0.00000458       0.00154347
C       -0.75770042       1.23016275       0.01104560      -0.00004234       0.00002988       0.00008809
N        1.40830077       2.33060763       0.02741180       0.00007810      -0.00004687       0.00040747
C        0.69259058      -1.19427085       0.03340802      -0.00001085      -0.00000126       0.00066624
N        8.23129763       0.00015769      -0.12255907       0.00000027       0.00000000      -0.00000002
C       -0.75760928      -1.23005254       0.01616266      -0.00004250      -0.00003789       0.00002282
N        1.40830314      -2.33058892       0.01164345       0.00009765       0.00005984       0.00068296
C       -1.49512347      -0.00010871      -0.01887633      -0.00002247      -0.00000176       0.00068048
N       -1.44029998      -2.48154576       0.04106784      -0.00001073      -0.00010999      -0.00138428
N       -2.82471928      -0.00029626      -0.04948176      -0.00004936       0.00000367       0.00184914
N       -1.44085052       2.48156014       0.02649441       0.00000191       0.00009137      -0.00118995
O        8.81255849      -1.07188660      -0.19453226      -0.00000013       0.00000027       0.00000002
O        8.81920189       1.07097443      -0.12914312      -0.00000013      -0.00000027       0.00000000
O       -2.65587530      -2.53279063      -0.14789380      -0.00010174       0.00019341      -0.00085615
O       -0.80860784      -3.51631912       0.25316714       0.00005517      -0.00036941      -0.00326779
O       -2.65576079       2.53113533      -0.16713337      -0.00010927      -0.00018606      -0.00057435
O       -0.81043238       3.51801871       0.23423489       0.00009418       0.00032036      -0.00303695
H        0.97049423       3.22714976       0.11197045       0.00009127       0.00007817      -0.00109362
H        2.40595226       2.22450507       0.05146264       0.00004804      -0.00014723       0.00070385
H        0.97158948      -3.22700550       0.10304685       0.00008710      -0.00007050      -0.00089158
H        2.40607764      -2.22455704       0.03115250       0.00006399       0.00017429       0.00106568
H       -3.28744590       0.88917131      -0.10451490      -0.00008116       0.00000442       0.00202737
H       -3.28726482      -0.89017865      -0.09922578      -0.00008362       0.00001219       0.00195079
24
Properties=species:S:1:pos:R:3:forces:R:3 energy=-27549.503677398403 free_energy=-27549.503677398403 stress="-2.734154414510156e-11 -1.7001134201117037e-12 -6.514585999135611e-13 -1.7001134201117037e-12 -1.528469282311024e-11 1.823849228467474e-13 -6.514585999135611e-13 1.823849228467474e-13 2.7813551923207354e-11" pbc="F F F"
C        0.69193337       1.19462442       0.03396368       0.00000803      -0.00002057       0.00035531
C        1.39611728       0.00001788       0.03900194      -0.00003834       0.00000213       0.00095003
C       -0.75860065       1.23074637       0.01006475      -0.00003423       0.00000390       0.00003627
N        1.40841416       2.33003313       0.02643623       0.00003327       0.00000988       0.00020837
C        0.69209182      -1.19451285       0.03121472       0.00000864       0.00001904       0.00039956
N        9.12449045       0.00012570      -0.11017295       0.00000013       0.00000000      -0.00000001
C       -0.75852933      -1.23073089       0.01449777      -0.00003314      -0.00000618      -0.00001645
N        1.40848974      -2.33000493       0.01190785       0.00004086      -0.00000219       0.00040419
C       -1.49591988      -0.00011123      -0.01633321      -0.00001394      -0.00000076       0.00047683
N       -1.44103900      -2.48218147       0.03465449       0.00001449      -0.00010960      -0.00096645
N       -2.82525518      -0.00023893      -0.04296917      -0.00002026       0.00000057       0.00143375
N       -1.44148197       2.48210989       0.02189408       0.00002077       0.00010114      -0.00081322
O        9.70690163      -1.07193635      -0.17184489      -0.00000006       0.00000012       0.00000001
O        9.71174841       1.07127953      -0.11916272      -0.00000006      -0.00000012       0.00000000
O       -2.65995218      -2.53126560      -0.13292701       0.00000707       0.00011135      -0.00099317
O       -0.80642811      -3.52026403       0.22100408      -0.00003322      -0.00012893      -0.00189386
O       -2.65973166       2.52994271      -0.15077160      -0.00001140      -0.00011384      -0.00068841
O       -0.80800057       3.52141585       0.20533924      -0.00000195       0.00011071      -0.00179399
H        0.97034538       3.22747241       0.09948077       0.00006649       0.00002431      -0.00063368
H        2.40606741       2.22357621       0.04857366       0.00002756      -0.00008622       0.00041988
H        0.97128979      -3.22739608       0.09065004       0.00006213      -0.00001971      -0.00046177
H        2.40623951      -2.22356317       0.02996722       0.00003467       0.00009787       0.00068280
H       -3.28794125       0.88970524      -0.09194380      -0.00006935      -0.00000511       0.00149022
H       -3.28781668      -0.89051399      -0.08703113      -0.00006816       0.00001222       0.00140379
24
Properties=species:S:1:pos:R:3:forces:R:3 energy=-27549.503784828536 free_energy=-27549.503784828536 stress="-6.898839488296352e-12 -6.497919067144885e-13 4.1625722457202117e-13 -6.497919067144885e-13 2.0933380194708406e-12 -1.2487034501206192e-14 4.1625722457202117e-13 -1.2487034501206192e-14 6.64789495459733e-12" pbc="F F F"
C        0.69145248       1.19477926       0.03174801       0.00002169      -0.00002685       0.00010912
C        1.39539890      -0.00000086       0.03769664      -0.00002283       0.00000072       0.00035124
C       -0.75946697       1.23128217       0.00904826      -0.00002657      -0.00001066      -0.00002071
N        1.40847473       2.32950818       0.02575839       0.00000078       0.00004152       0.00007081
C        0.69158873      -1.19473660       0.02909290       0.00002278       0.00002641       0.00014177
N       10.01732470       0.00006607      -0.09782688       0.00000003       0.00000000      -0.00000000
C       -0.75941684      -1.23135431       0.01278781      -0.00002467       0.00001141      -0.00006259
N        1.40861064      -2.32948043       0.01259981       0.00000223      -0.00003842       0.00020835
C       -1.49668993      -0.00011352      -0.01380568      -0.00000515      -0.00000012       0.00026910
N       -1.44176478      -2.48275764       0.02805112       0.00002770      -0.00009716      -0.00058950
N       -2.82577511      -0.00018616      -0.03664759       0.00000248      -0.00000094       0.00097960
N       -1.44210183       2.48261116       0.01713951       0.00002939       0.00009505      -0.00046954
O       10.60085241      -1.07193364      -0.14916203      -0.00000002       0.00000003       0.00000000
O       10.60392213       1.07155960      -0.10915520      -0.00000002      -0.00000003       0.00000000
O       -2.66374256      -2.52990541      -0.11703691       0.00005537       0.00005558      -0.00093795
O       -0.80447842      -3.52382174       0.18740102      -0.00007292       0.00001360      -0.00080553
O       -2.66341831       2.52889000      -0.13362952       0.00003416      -0.00006107      -0.00063670
O       -0.80580747       3.52448028       0.17524804      -0.00005045      -0.00001485      -0.00078980
H        0.97017560       3.22773810       0.08690672       0.00003792      -0.00001181      -0.00020568
H        2.40612736       2.22271534       0.04606200       0.00001498      -0.00003688       0.00019913
H        0.97097083      -3.22772689       0.07817498       0.00003438       0.00001390      -0.00006188
H        2.40633650      -2.22265595       0.02927799       0.00001691       0.00003891       0.00038795
H       -3.28840598       0.89020258      -0.07940641      -0.00005044      -0.00000709       0.00097485
H       -3.28833450      -0.89082977      -0.07482897      -0.00004775       0.00000876       0.00088796
24
Properties=species:S:1:pos:R:3:forces:R:3 energy=-27549.50372233417 free_energy=-27549.50372233417 stress="-8.538489584427183e-11 2.1261590255593015e-12 4.104760275856157e-11 2.1261590255593015e-12 -4.412596557872271e-11 -3.0000801651887166e-13 4.104760275856157e-11 -3.0000801651887166e-13 3.0902769777344357e-12" pbc="F F F"
C        0.69091283       1.19496193       0.03207729       0.00091890      -0.00129247      -0.00150470
C        1.39444054      -0.00004833       0.04431466       0.00264394       0.00034819      -0.00633489
C       -0.76036757       1.23177737       0.00834785       0.00227757      -0.00436038       0.00005656
N        1.40841907       2.32911277       0.02316928      -0.00136615      -0.00310164       0.00235212
C        0.69101067      -1.19499977       0.02936801       0.00092201       0.00057665      -0.00129084
N       10.91018670      -0.00003676      -0.08552357      -0.00564969       0.00178065       0.00028611
C       -0.76036292      -1.23194953       0.01150102       0.00214250       0.00481472      -0.00009378
N        1.40858231      -2.32908666       0.01086403      -0.00135510       0.00361592       0.00271202
C       -1.49762450      -0.00011631      -0.01218311      -0.00080605      -0.00043694       0.00192939
N       -1.44218622      -2.48328966       0.02312139       0.00063281       0.00176484       0.00113836
N       -2.82650382      -0.00014833      -0.03464322       0.00032097       0.00133736       0.00238136
N       -1.44239427       2.48307668       0.01375008      -0.00008676      -0.00220925       0.00057057
O       11.49461818      -1.07190530      -0.12647562       0.00330992      -0.00242663      -0.00018532
O       11.49593733       1.07185720      -0.09911379       0.00233977       0.00064598      -0.00010079
O       -2.66707355      -2.52892442      -0.09596722      -0.00169226      -0.00459508      -0.00234351
O       -0.80189316      -3.52662496       0.15386032      -0.00687981      -0.00306573      -0.00185601
O       -2.66657066       2.52820251      -0.11260138      -0.00140122       0.00448359      -0.00183343
O       -0.80303537       3.52683158       0.14563138      -0.00663334       0.00347885      -0.00190874
H        0.96982930       3.22809503       0.06901160      -0.00096350       0.00079505       0.00372522
H        2.40603828       2.22260829       0.04393946       0.00244019      -0.00338933      -0.00109356
H        0.97051291      -3.22813026       0.06035131      -0.00115361      -0.00101127       0.00308058
H        2.40626205      -2.22247712       0.02828546       0.00246279       0.00330664      -0.00059822
H       -3.28941575       0.89052158      -0.07011549       0.00401894       0.00008506       0.00054533
H       -3.28940478      -0.89097772      -0.06547573       0.00355717      -0.00114478       0.00036617
