24
Properties=species:S:1:pos:R:3:forces:R:3 energy=-27552.893081450664 free_energy=-27552.893081450664 stress="-9.806588686641509e-09 1.2265474318372674e-09 -2.6465353506947267e-09 1.2265474318372674e-09 1.1549361762202274e-08 -8.316044559629677e-10 -2.6465353506947267e-09 -8.316044559629677e-10 3.468194487571337e-10" pbc="F F F"
C        0.72428586       1.25289622       0.03093742       0.00224717       0.00407175      -0.00449631
C        1.42871152       0.00061259      -0.06208186       0.00016893      -0.00003562      -0.00053842
C       -0.71114656       1.23129975       0.02823473      -0.00021336       0.00241582      -0.00320039
N        1.37699786       2.39495644       0.08465257       0.00260134       0.00234632      -0.00285499
C        0.72470091      -1.25215621       0.02471311      -0.00011213       0.00028935      -0.00443560
N        2.85664327      -0.00015128      -0.19503282      -0.00259992      -0.00372133      -0.00423451
C       -0.71018844      -1.23014714       0.03712106      -0.00061562      -0.00170601      -0.00402511
N        1.37770428      -2.39492003       0.07133075       0.00221188      -0.00354986      -0.00216454
C       -1.44568385      -0.00005075      -0.04425662       0.00026271       0.00073588       0.00162108
N       -1.42849845      -2.47322344       0.09991534       0.00058086      -0.00105616       0.00372392
N       -2.76027639      -0.00084381      -0.12479193       0.00765622      -0.00177251       0.00027060
N       -1.43028350       2.47438210       0.07437415      -0.00334601      -0.00000869       0.00160717
O        3.46576031      -1.06042678      -0.33090089      -0.00158554       0.00018644       0.00332200
O        3.48336993       1.05848624      -0.19024401      -0.00244885      -0.00011361       0.00587549
O       -2.61224270      -2.51935238      -0.22698079      -0.00448078      -0.00415500       0.00251377
O       -0.86087695      -3.49268979       0.48627155       0.00112276       0.00619407      -0.00058452
O       -2.61401910       2.51488460      -0.25411390      -0.00442683       0.00535257       0.00135434
O       -0.86477593       3.50033298       0.44651106       0.00184122      -0.00434076       0.00046258
H        0.83872476       3.23628437       0.21552433       0.00084540      -0.00004319       0.00307859
H        2.38314419       2.35646543       0.03509791       0.00391220      -0.00644248       0.00190817
H        0.84174156      -3.23571641       0.21377827       0.00286366       0.00200374       0.00367899
H        2.38096134      -2.36045783      -0.01910394       0.00001388       0.00540438      -0.00056268
H       -3.22234801       0.89079548      -0.20642105      -0.00443325      -0.00504812      -0.00077533
H       -3.22248839      -0.89293053      -0.19904041      -0.00206594       0.00299304      -0.00154427
24
Properties=species:S:1:pos:R:3:forces:R:3 energy=-27550.145210882703 free_energy=-27550.145210882703 stress="4.3292846944930117e-07 4.3707314255697947e-10 -2.078197737471016e-08 4.3707314255697947e-10 -1.40758240983999e-08 2.4926885415023656e-10 -2.078197737471016e-08 2.4926885415023656e-10 -8.792645136638914e-09" pbc="F F F"
C        0.65917779       1.20139809       0.12200015       0.01010255      -0.00092428       0.00424615
C        1.36538274      -0.00148622       0.20522344       0.02893622      -0.00039297       0.00706212
C       -0.78471095       1.23125531       0.03103657       0.02072692       0.00033290       0.00312770
N        1.39516038       2.31756231       0.07307073       0.01879319       0.01162261       0.00529309
C        0.65832154      -1.20286254       0.11663095       0.01044919       0.00093946       0.00399771
N        3.96972781       0.01493271      -0.65523358      -0.04759759       0.00134483      -0.09890026
C       -0.78609737      -1.23158551       0.03926562       0.02011437      -0.00035003       0.00256421
N        1.39284418      -2.31914671       0.04621256       0.01913071      -0.01173680       0.00491352
C       -1.52356081      -0.00023847      -0.02589341       0.01898249      -0.00002153       0.00450312
N       -1.47464169      -2.48356307       0.07284113       0.00845713       0.00865515      -0.00978651
N       -2.84740853      -0.00051462      -0.10765211       0.01738468       0.00011800       0.00627945
N       -1.47338810       2.48344461       0.04827129       0.00899586      -0.00865569      -0.00852783
O        4.22761646      -1.07027411      -0.15398347      -0.14818029      -0.00575708       0.05960318
O        4.23054376       1.06434830      -0.08423120      -0.15425855       0.00536621       0.04788016
O       -2.66883361      -2.54347506      -0.22240161       0.01744348       0.00509315       0.00216058
O       -0.86495842      -3.49713605       0.40195698       0.01846306      -0.01248589      -0.02039307
O       -2.66655077       2.53948834      -0.25197670       0.01787996      -0.00452494       0.00174953
O       -0.86571913       3.50156199       0.36716360       0.01861288       0.01157820      -0.01758405
H        0.98329101       3.22753514       0.12213560       0.01289376      -0.00676006      -0.00792217
H        2.40058896       2.18146645       0.08000937       0.01408609       0.00290556       0.00332612
H        0.98248242      -3.22931644       0.10394820       0.01242372       0.00652472      -0.00894343
H        2.39821511      -2.18317297       0.03946582       0.01384121      -0.00349067       0.00494472
H       -3.30784084       0.88871735      -0.19008186       0.02128254       0.00137488       0.00515718
H       -3.30762494      -0.89060903      -0.18228403       0.02103644      -0.00075570       0.00524878
24
Properties=species:S:1:pos:R:3:forces:R:3 energy=-27549.98038545266 free_energy=-27549.98038545266 stress="2.183286031917866e-08 -4.457250407590364e-10 -1.4782717322281489e-09 -4.457250407590364e-10 -9.125155227710504e-10 1.010673427586725e-10 -1.4782717322281489e-09 1.010673427586725e-10 3.447950390023766e-09" pbc="F F F"
C        0.68244569       1.20628786       0.04914376       0.00113707       0.00456795       0.00562684
C        1.36942602      -0.00001332       0.05229375       0.00093699      -0.00007751       0.01774500
C       -0.76285264       1.23426876       0.01699310      -0.00004331      -0.00152207       0.00081578
N        1.42501265       2.32265736       0.03800690       0.00538479      -0.00810713      -0.00217829
C        0.68273079      -1.20602626       0.04477040       0.00104853      -0.00467193       0.00522194
N        4.45803145       0.00122771      -0.16365761      -0.01001521       0.00052516       0.00161043
C       -0.76279271      -1.23375157       0.02425379      -0.00010455       0.00135074       0.00034129
N        1.42426338      -2.32303027       0.01459639       0.00526545       0.00801373      -0.00278779
C       -1.49708806      -0.00013418      -0.02922235       0.00203172      -0.00000758       0.00266565
N       -1.44560009      -2.48639629       0.07197506       0.00401553      -0.00422165      -0.00355822
N       -2.82509723      -0.00061120      -0.08486134       0.00005882       0.00003618       0.00471427
N       -1.44640000       2.48691938       0.05024567       0.00415906       0.00407421      -0.00285586
O        5.02297678      -1.07356857      -0.24841520      -0.00940288      -0.00033155       0.01036516
O        5.03599307       1.07241707      -0.17524178      -0.00939729       0.00047606      -0.00176219
O       -2.64603898      -2.55203853      -0.19333146      -0.00193035       0.00096045       0.00275525
O       -0.82101591      -3.49891430       0.38108891       0.00158758      -0.00057991      -0.01693371
O       -2.64626423       2.54883454      -0.21867403      -0.00160773      -0.00083765       0.00298261
O       -0.82363452       3.50356921       0.34952904       0.00175423       0.00009974      -0.01545518
H        1.02255877       3.23196436       0.14615001       0.00202725       0.00403505      -0.01101255
H        2.42452670       2.18506954       0.04447268      -0.00003396      -0.00228569      -0.00019743
H        1.02358382      -3.23206003       0.13150170       0.00188764      -0.00404389      -0.01198517
H        2.42392072      -2.18633195       0.00987343       0.00001371       0.00236385       0.00015595
H       -3.28771460       0.88731776      -0.16133838       0.00064727       0.00010742       0.00694825
H       -3.28728319      -0.88932724      -0.15465841       0.00057964       0.00007603       0.00677796
24
Properties=species:S:1:pos:R:3:forces:R:3 energy=-27549.808247412457 free_energy=-27549.808247412457 stress="1.987279302817824e-07 4.2893753830770967e-10 -6.878364854671848e-09 4.2893753830770967e-10 3.981365602513414e-10 -2.4595775570293446e-12 -6.878364854671848e-09 -2.4595775570293446e-12 1.504097694318895e-09" pbc="F F F"
C        0.72319950       1.19709187       0.03586676       0.01258864       0.00066651      -0.00039031
C        1.42802553       0.00039892       0.02556022       0.01228451       0.00012796       0.00117483
C       -0.72513595       1.22761842       0.01341074       0.01293054      -0.00008960      -0.00021139
N        1.44332248       2.33102159       0.02884295       0.01452377      -0.00049091      -0.00196925
C        0.72373135      -1.19630689       0.03247696       0.01268868      -0.00048910      -0.00046217
N        5.22006897      -0.00022636      -0.15115434      -0.09484899      -0.00021017       0.00554420
C       -0.72472351      -1.22701987       0.01993906       0.01304294       0.00010489      -0.00052300
N        1.44347221      -2.33057568       0.00975914       0.01479716       0.00080559      -0.00170311
C       -1.46305906      -0.00008473      -0.02725512       0.01319580       0.00000306       0.00158355
N       -1.40974149      -2.47956615       0.06254050       0.01311021      -0.00071136      -0.00304563
N       -2.79444351      -0.00056743      -0.07034970       0.01282838      -0.00000702       0.00487305
N       -1.41109646       2.48000636       0.04334248       0.01293131       0.00065891      -0.00240799
O        5.80290954      -1.06961529      -0.22993494      -0.09511848      -0.00030934       0.01030139
O        5.81361649       1.06615963      -0.14268585      -0.09499294      -0.00054445       0.00474786
O       -2.61374501      -2.53974586      -0.18474577       0.01259381       0.00000635      -0.00010735
O       -0.78628566      -3.50068566       0.34941556       0.01449114      -0.00133367      -0.00827526
O       -2.61436312       2.53697218      -0.20832705       0.01251079       0.00001575       0.00011006
O       -0.78959402       3.50447266       0.32257947       0.01419338       0.00111528      -0.00692326
H        1.01103939       3.22622596       0.14744594       0.01590011       0.00037532      -0.00455823
H        2.44289242       2.21310605       0.04545441       0.01449386      -0.00316678      -0.00250544
H        1.01306066      -3.22557347       0.13655654       0.01620586      -0.00015083      -0.00464487
H        2.44319526      -2.21289007       0.01864285       0.01475619       0.00364076      -0.00202557
H       -3.25891748       0.88678136      -0.14408709       0.01243285       0.00004503       0.00576110
H       -3.25844602      -0.88866772      -0.13779970       0.01246048      -0.00006218       0.00565679
24
Properties=species:S:1:pos:R:3:forces:R:3 energy=-27549.605139252188 free_energy=-27549.605139252188 stress="7.317730843109132e-08 2.254552818474364e-11 -2.2584768442440617e-09 2.254552818474364e-11 1.7716557064520644e-10 1.33537933230244e-11 -2.2584768442440617e-09 1.33537933230244e-11 7.064028018071635e-10" pbc="F F F"
C        0.70771190       1.19444273       0.03763849       0.00553906       0.00011630       0.00132275
C        1.41406844       0.00010804       0.03414004       0.00581148      -0.00000032       0.00434018
C       -0.74231190       1.22901226       0.01233569       0.00565088      -0.00004115       0.00001645
N        1.42560675       2.32992983       0.03104500       0.00665020      -0.00038400      -0.00014867
C        0.70796675      -1.19408872       0.03475073       0.00553023      -0.00011058       0.00140567
N        5.99847696      -0.00018249      -0.14206469      -0.04309116      -0.00011352       0.00182067
C       -0.74217133      -1.22864722       0.01886698       0.00564765      -0.00000170      -0.00011060
N        1.42542063      -2.32994256       0.01315450       0.00667096       0.00041716       0.00032814
C       -1.48034892      -0.00009437      -0.02574370       0.00578190       0.00000424       0.00128566
N       -1.42503987      -2.47858295       0.05631447       0.00583621      -0.00022036      -0.00286025
N       -2.81073408      -0.00042292      -0.06666806       0.00557959       0.00002134       0.00336789
N       -1.42582932       2.47888048       0.03800698       0.00588081       0.00017583      -0.00254098
O        6.58344373      -1.07046895      -0.23048224      -0.04259378       0.00005844       0.00250122
O        6.59161934       1.06923259      -0.14263710      -0.04320183      -0.00001010       0.00205044
O       -2.63438028      -2.53663599      -0.17023516       0.00528324       0.00025079       0.00015638
O       -0.79910343      -3.50588377       0.31744300       0.00688162      -0.00122918      -0.00828636
O       -2.63448754       2.53434906      -0.19284403       0.00536847      -0.00018603       0.00023151
O       -0.80149081       3.50890490       0.29228929       0.00692070       0.00102976      -0.00754793
H        0.99355029       3.22670857       0.13629565       0.00796086       0.00020340      -0.00393733
H        2.42352621       2.21750341       0.05161638       0.00656269      -0.00207811       0.00061712
H        0.99486014      -3.22649584       0.12624815       0.00795829      -0.00016790      -0.00371050
H        2.42351418      -2.21783691       0.02720066       0.00662499       0.00218512       0.00127479
H       -3.27408312       0.88760168      -0.13368828       0.00538445       0.00008759       0.00423051
H       -3.27377871      -0.88906103      -0.12748872       0.00536250      -0.00000700       0.00419322
24
Properties=species:S:1:pos:R:3:forces:R:3 energy=-27549.549155525674 free_energy=-27549.549155525674 stress="5.177026182964556e-08 -1.6513152873721245e-11 -1.298113394534004e-09 -1.6513152873721245e-11 1.4984536332537397e-10 7.35513614333232e-12 -1.298113394534004e-09 7.35513614333232e-12 3.4140587277207457e-10" pbc="F F F"
C        0.70544873       1.19446108       0.03574540       0.00477257       0.00009101       0.00097577
C        1.41003444       0.00003116       0.03476294       0.00487186      -0.00001409       0.00334415
C       -0.74472303       1.22959904       0.01157608       0.00486762      -0.00006154      -0.00000964
N        1.42242519       2.33025936       0.02848410       0.00563717      -0.00033259      -0.00023803
C        0.70562326      -1.19424848       0.03277124       0.00475721      -0.00010640       0.00101554
N        6.78217359       0.00013411      -0.13215105      -0.03652956      -0.00001991       0.00081930
C       -0.74463393      -1.22937581       0.01737185       0.00485415       0.00003014      -0.00013263
N        1.42225646      -2.33034511       0.01126146       0.00562668       0.00032756       0.00005846
C       -1.48255292      -0.00009653      -0.02267403       0.00496091       0.00000210       0.00107266
N       -1.42781715      -2.48051709       0.04953531       0.00499216      -0.00020418      -0.00228531
N       -2.81238477      -0.00034540      -0.05930080       0.00479887       0.00001852       0.00304763
N       -1.42843877       2.48067390       0.03311148       0.00504256       0.00017406      -0.00199899
O        7.36535238      -1.07150871      -0.20877805      -0.03612127       0.00004142       0.00229827
O        7.37255209       1.07055417      -0.13441068      -0.03653024       0.00003573       0.00138906
O       -2.64046788      -2.53450642      -0.15715254       0.00469622       0.00015542      -0.00059947
O       -0.79878308      -3.51148922       0.28606317       0.00558202      -0.00076798      -0.00591534
O       -2.64041056       2.53258670      -0.17806803       0.00475092      -0.00011668      -0.00036585
O       -0.80082478       3.51381528       0.26402508       0.00565753       0.00064674      -0.00542514
H        0.98631515       3.22639293       0.12460470       0.00651028       0.00013098      -0.00289022
H        2.42050964       2.22123261       0.05000938       0.00554218      -0.00157079       0.00045130
H        0.98744187      -3.22627152       0.11499930       0.00647886      -0.00012663      -0.00270481
H        2.42047766      -2.22151332       0.02727577       0.00555736       0.00160121       0.00091939
H       -3.27546467       0.88855846      -0.11965771       0.00462094       0.00005762       0.00363096
H       -3.27523280      -0.88975136      -0.11391037       0.00460302       0.00000827       0.00354293
24
Properties=species:S:1:pos:R:3:forces:R:3 energy=-27549.503242936727 free_energy=-27549.503242936727 stress="-2.6667250939914095e-10 -4.371843108495574e-12 -2.1266861442742735e-11 -4.371843108495574e-12 1.0374310443721286e-10 1.8755501625261193e-12 -2.1266861442742735e-11 1.8755501625261193e-12 1.0325580573346685e-10" pbc="F F F"
C        0.69255886       1.19444426       0.03496567      -0.00031019       0.00004955       0.00100868
C        1.39708191       0.00004179       0.03689146      -0.00022710       0.00000028       0.00305457
C       -0.75755880       1.23012126       0.01091287      -0.00020613      -0.00007273       0.00002099
N        1.40810034       2.33082553       0.02701523       0.00024690      -0.00019273      -0.00005336
C        0.69274750      -1.19425271       0.03205897      -0.00030881      -0.00004030       0.00105149
N        7.56413219       0.00017860      -0.12234943      -0.00005937       0.00000861       0.00009231
C       -0.75745654      -1.22999226       0.01614675      -0.00020360       0.00005527      -0.00006809
N        1.40809233      -2.33081984       0.01081452       0.00025099       0.00020172       0.00019162
C       -1.49495708      -0.00010834      -0.02011084      -0.00013598      -0.00000001       0.00082115
N       -1.44022855      -2.48140132       0.04356776      -0.00009072      -0.00013401      -0.00174732
N       -2.82449105      -0.00031035      -0.05294638      -0.00025956       0.00000080       0.00247935
N       -1.44081371       2.48144489       0.02867614      -0.00007710       0.00011305      -0.00154510
O        8.14525697      -1.07191130      -0.19463456      -0.00011213      -0.00001145      -0.00003291
O        8.15211135       1.07094410      -0.12926326      -0.00002475      -0.00001137      -0.00004536
O       -2.65568698      -2.53301460      -0.14599886      -0.00010655       0.00003640      -0.00155217
O       -0.80874238      -3.51568635       0.25864165       0.00017001      -0.00037474      -0.00348213
O       -2.65558673       2.53134572      -0.16568495      -0.00010987      -0.00004361      -0.00128768
O       -0.81065152       3.51747246       0.23932595       0.00019792       0.00031732      -0.00323645
H        0.96995951       3.22697770       0.11414955       0.00089058       0.00009864      -0.00167414
H        2.40581869       2.22522791       0.05022104       0.00017832      -0.00099855       0.00089258
H        0.97108476      -3.22683842       0.10488231       0.00090318      -0.00006794      -0.00145544
H        2.40593649      -2.22531010       0.02929332       0.00021103       0.00104718       0.00130662
H       -3.28713398       0.88918122      -0.10825146      -0.00040855       0.00000527       0.00267870
H       -3.28694429      -0.89023002      -0.10282942      -0.00040852       0.00001332       0.00258212
24
Properties=species:S:1:pos:R:3:forces:R:3 energy=-27549.50363651265 free_energy=-27549.50363651265 stress="-1.7122336529260212e-10 -2.7015915795374573e-12 -7.4527067950558e-12 -2.7015915795374573e-12 7.52264015696282e-11 7.28597867176557e-13 -7.4527067950558e-12 7.28597867176557e-13 3.7795203560444545e-11" pbc="F F F"
C        0.69202158       1.19461941       0.03323647      -0.00020251       0.00003852       0.00057448
C        1.39624964       0.00001769       0.03690022      -0.00015145      -0.00000197       0.00182875
C       -0.75852707       1.23073624       0.01003042      -0.00013583      -0.00006413      -0.00003211
N        1.40829300       2.33015450       0.02626182       0.00016458      -0.00014252      -0.00006862
C        0.69218028      -1.19450817       0.03042207      -0.00020290      -0.00003131       0.00060748
N        8.34658723       0.00012572      -0.11017694      -0.00000000       0.00000000       0.00000000
C       -0.75845611      -1.23071454       0.01455562      -0.00013422       0.00005413      -0.00009980
N        1.40835653      -2.33013839       0.01142963       0.00015248       0.00013182       0.00010636
C       -1.49582544      -0.00011036      -0.01719629      -0.00009159       0.00000221       0.00057507
N       -1.44100895      -2.48211279       0.03642234      -0.00005339      -0.00007916      -0.00124580
N       -2.82510398      -0.00024211      -0.04566558      -0.00018889      -0.00000066       0.00193749
N       -1.44146113       2.48205742       0.02341295      -0.00003987       0.00007178      -0.00108753
O        8.92899802      -1.07193635      -0.17185237       0.00000000      -0.00000001      -0.00000000
O        8.93384542       1.07127943      -0.11916604       0.00000000       0.00000000       0.00000000
O       -2.65994930      -2.53138043      -0.13089578      -0.00001325       0.00000512      -0.00155420
O       -0.80643771      -3.51997625       0.22415226       0.00004560      -0.00015877      -0.00202420
O       -2.65970557       2.53006671      -0.14922676      -0.00002795      -0.00001462      -0.00125530
O       -0.80806135       3.52115861       0.20832327       0.00007473       0.00013583      -0.00192223
H        0.96998048       3.22737360       0.10071643       0.00058317       0.00005998      -0.00093109
H        2.40598888       2.22400218       0.04781066       0.00009793      -0.00065113       0.00056873
H        0.97093031      -3.22730795       0.09160181       0.00058742      -0.00003854      -0.00074834
H        2.40614984      -2.22401199       0.02876552       0.00011553       0.00067032       0.00086610
H       -3.28772095       0.88973570      -0.09471308      -0.00029072      -0.00001065       0.00200291
H       -3.28759754      -0.89055808      -0.08965463      -0.00028887       0.00002374       0.00190184
24
Properties=species:S:1:pos:R:3:forces:R:3 energy=-27549.503770751875 free_energy=-27549.503770751875 stress="-6.594181497928894e-11 -6.385820309802989e-13 -1.983783666082352e-12 -6.385820309802989e-13 3.9948218045225415e-11 1.5822325668010536e-13 -1.983783666082352e-12 1.5822325668010536e-13 8.994892339583758e-12" pbc="F F F"
C        0.69149027       1.19477999       0.03156185      -0.00009519       0.00000035       0.00012114
C        1.39545249      -0.00000155       0.03701193      -0.00007064      -0.00000049       0.00054096
C       -0.75944232       1.23128771       0.00913081      -0.00005514      -0.00003029      -0.00010468
N        1.40841986       2.32955674       0.02568751       0.00006350      -0.00003097      -0.00000754
C        0.69162617      -1.19473835       0.02885690      -0.00009445       0.00000556       0.00014877
N        9.12840679       0.00006607      -0.09782827      -0.00000000       0.00000000       0.00000000
C       -0.75939483      -1.23136031       0.01294118      -0.00005236       0.00002671      -0.00015385
N        1.40855212      -2.32953083       0.01231298       0.00005312       0.00001812       0.00012135
C       -1.49664910      -0.00011347      -0.01428229      -0.00005110       0.00000207       0.00031257
N       -1.44175490      -2.48273971       0.02915509      -0.00004004      -0.00001142      -0.00079326
N       -2.82569167      -0.00018615      -0.03850190      -0.00009878      -0.00000163       0.00134600
N       -1.44209372       2.48259884       0.01804952      -0.00003366       0.00001081      -0.00067016
O        9.71193438      -1.07193364      -0.14916459       0.00000000      -0.00000000      -0.00000000
O        9.71500429       1.07155957      -0.10915633       0.00000000       0.00000000       0.00000000
O       -2.66381501      -2.52995779      -0.11523624       0.00004687       0.00000091      -0.00131831
O       -0.80442357      -3.52374081       0.18876324      -0.00000891      -0.00005160      -0.00089938
O       -2.66345953       2.52895358      -0.13231138       0.00002608      -0.00000954      -0.00101759
O       -0.80578932       3.52440071       0.17658384       0.00001173       0.00004804      -0.00088391
H        0.96999693       3.22770713       0.08722397       0.00029748      -0.00000227      -0.00018014
H        2.40609370       2.22291241       0.04565740       0.00005426      -0.00031841       0.00032562
H        0.97079597      -3.22770129       0.07825845       0.00030070       0.00001494      -0.00003258
H        2.40629969      -2.22285741       0.02856177       0.00006398       0.00032330       0.00053302
H       -3.28827329       0.89023239      -0.08125095      -0.00016026      -0.00001623       0.00135335
H       -3.28820568      -0.89086402      -0.07653045      -0.00015720       0.00002204       0.00125860
24
Properties=species:S:1:pos:R:3:forces:R:3 energy=-27549.50372233417 free_energy=-27549.50372233417 stress="-1.0966134491611143e-10 2.730666059227618e-12 5.271827208978336e-11 2.730666059227618e-12 -5.667173700514115e-11 -3.8531071865315304e-13 5.271827208978336e-11 -3.8531071865315304e-13 3.968905272194581e-12" pbc="F F F"
C        0.69091283       1.19496193       0.03207729       0.00091890      -0.00129247      -0.00150470
C        1.39444054      -0.00004833       0.04431466       0.00264394       0.00034819      -0.00633489
C       -0.76036757       1.23177737       0.00834785       0.00227757      -0.00436038       0.00005656
N        1.40841907       2.32911277       0.02316928      -0.00136615      -0.00310164       0.00235212
C        0.69101067      -1.19499977       0.02936801       0.00092201       0.00057665      -0.00129084
N        9.91018670      -0.00003676      -0.08552357      -0.00564968       0.00178066       0.00028611
C       -0.76036292      -1.23194953       0.01150102       0.00214250       0.00481472      -0.00009378
N        1.40858231      -2.32908666       0.01086403      -0.00135510       0.00361592       0.00271202
C       -1.49762450      -0.00011631      -0.01218311      -0.00080605      -0.00043694       0.00192939
N       -1.44218622      -2.48328966       0.02312139       0.00063281       0.00176484       0.00113836
N       -2.82650382      -0.00014833      -0.03464322       0.00032097       0.00133736       0.00238136
N       -1.44239427       2.48307668       0.01375008      -0.00008676      -0.00220925       0.00057057
O       10.49461819      -1.07190530      -0.12647562       0.00330992      -0.00242663      -0.00018532
O       10.49593733       1.07185720      -0.09911380       0.00233976       0.00064598      -0.00010079
O       -2.66707355      -2.52892442      -0.09596722      -0.00169226      -0.00459508      -0.00234351
O       -0.80189316      -3.52662496       0.15386032      -0.00687981      -0.00306573      -0.00185601
O       -2.66657066       2.52820251      -0.11260138      -0.00140122       0.00448359      -0.00183343
O       -0.80303537       3.52683158       0.14563138      -0.00663334       0.00347885      -0.00190874
H        0.96982930       3.22809503       0.06901160      -0.00096350       0.00079505       0.00372522
H        2.40603828       2.22260829       0.04393946       0.00244019      -0.00338933      -0.00109356
H        0.97051291      -3.22813026       0.06035131      -0.00115361      -0.00101127       0.00308058
H        2.40626205      -2.22247712       0.02828546       0.00246279       0.00330664      -0.00059822
H       -3.28941575       0.89052158      -0.07011549       0.00401894       0.00008506       0.00054533
H       -3.28940478      -0.89097772      -0.06547573       0.00355717      -0.00114478       0.00036617
