24
Properties=species:S:1:pos:R:3:forces:R:3 energy=-27550.711745428507 free_energy=-27550.711745428507 stress="9.286702569606405e-09 1.3835636287002282e-08 4.314449760673237e-10 1.3835636287002282e-08 -2.8943917699032387e-09 5.666168654582601e-09 4.314449760673237e-10 5.666168654582601e-09 -8.872695846413994e-09" pbc="F F F"
C        0.71538590       1.40237440      -0.18436217       0.00045429       0.00232199      -0.00234968
C        1.42976323       0.09752184      -0.07103492       0.00282576       0.00246039       0.00173923
C       -0.75948726       1.30129798      -0.08155422       0.00016233       0.00066810       0.00132532
N        1.41267508       2.47087658      -0.28528464      -0.00153294       0.00403686      -0.01170863
C        0.74663315      -1.18515069      -0.09388126       0.00012841       0.00191054      -0.00584029
N        2.78264436       0.13640563      -0.03291318       0.00175253       0.00138690       0.01565375
C       -0.66551557      -1.19360819       0.00218254       0.00232101       0.00210708       0.00279405
N        1.42742750      -2.30468287      -0.30114704      -0.00285958       0.00279032      -0.02341684
C       -1.43579859       0.05528433       0.04594895       0.00145317       0.00111543       0.00526334
N       -1.35542451      -2.45544330       0.00761771       0.00310903       0.00070295       0.00479012
N       -2.74424492      -0.01326818       0.19217554       0.00175970      -0.00074666       0.01035424
N       -1.52626132       2.50497190      -0.07291627      -0.00286969      -0.00017459      -0.00509055
O        3.53914034       1.00974654      -0.34923359       0.00877631       0.00792651       0.03871942
O        3.43258656      -0.97182457       0.56934375      -0.00628884      -0.01440712      -0.00061746
O       -2.58006494      -2.50565232      -0.07999262       0.00488785      -0.00085435      -0.01577719
O       -0.71763826      -3.50481539       0.10660643       0.00338398       0.00342945       0.02831736
O       -2.74026413       2.48393009       0.17743622       0.00051192      -0.00065062       0.01025203
O       -0.98850742       3.57924901      -0.31305726      -0.00871910      -0.00169178      -0.02589241
H        0.79627687       3.26994758      -0.34083157      -0.00398531       0.00231355      -0.01361741
H        4.34480639      -0.64802340       0.49520034      -0.00423716      -0.01636133       0.00788205
H        0.91832481      -3.17330721      -0.20914760      -0.00008044       0.00237262      -0.01225055
H        2.42708138      -2.28288291      -0.30033307      -0.00284586       0.00143494      -0.02710239
H       -3.23694307       0.86839898       0.23701746       0.00046547      -0.00169834       0.01286721
H       -3.17876250      -0.92128830       0.18274320       0.00142715      -0.00039285       0.00370529
