24
Properties=species:S:1:pos:R:3:forces:R:3 energy=-27550.482603229208 free_energy=-27550.482603229208 stress="-1.2448414819273e-09 -2.4399983103393776e-08 1.5817063214167185e-10 -2.4399983103393776e-08 2.0174509267331906e-08 -8.32217287102783e-09 1.5817063214167185e-10 -8.32217287102783e-09 -4.43092545597853e-08" pbc="F F F"
C        0.73244078       1.34017843      -0.03825846      -0.00077074      -0.00490621       0.00534991
C        1.32143064       0.02678609       0.04486519      -0.01308094      -0.00417319       0.00602897
C       -0.74252558       1.27928114      -0.02979797      -0.00042745      -0.00163596      -0.00012124
N        1.52540783       2.35536639      -0.12161552       0.01096685      -0.01127544       0.01291979
C        0.72360759      -1.20470851      -0.07382734      -0.00278183       0.00007664       0.00935790
N        2.76521078       0.02106391      -0.12309422      -0.00373142      -0.00619550      -0.01597889
C       -0.73190425      -1.22906722      -0.01412328      -0.00642051      -0.00271102       0.00435051
N        1.46197479      -2.31894812      -0.23169512       0.00743016       0.00401104       0.01292691
C       -1.46616585       0.01332060       0.03272228      -0.00346476      -0.00326876       0.00136494
N       -1.42093570      -2.47050278       0.00145526      -0.00485945      -0.00162790       0.00078540
N       -2.77992854      -0.00723309       0.12987513      -0.00400878       0.00003384      -0.00053009
N       -1.46409302       2.49548395      -0.03970183       0.00436694      -0.00022771      -0.00168295
O        3.33357891      -0.08455800      -1.17265466      -0.01875362      -0.01098292      -0.09854099
O        3.47828479       0.04683934       1.01049706      -0.00460868       0.01494550       0.04898422
O       -2.65393917      -2.52008224      -0.01938847      -0.00536116      -0.00326229       0.00380071
O       -0.77875217      -3.52404526       0.03859440      -0.00198211      -0.00045962      -0.00656102
O       -2.70201222       2.51497951       0.05753781       0.00287723       0.00448873      -0.00557968
O       -0.85187309       3.55273070      -0.14665135       0.01177206      -0.00325210       0.00059300
H        0.94877493       3.18527746      -0.19688074       0.01826406      -0.00688609       0.00230915
H        4.40576492       0.05349623       0.71036239      -0.00095413       0.01855805       0.03385640
H        0.99595768      -3.20623743      -0.28046697       0.01746702      -0.00049112      -0.00655867
H        2.41832971      -2.20826422      -0.50626444       0.00529453       0.01831381      -0.00543205
H       -3.24734635       0.88879220       0.15091008      -0.00255515       0.00084556      -0.00277212
H       -3.22828393      -0.91187980       0.12357481      -0.00467812       0.00008266       0.00112991
