24
Properties=species:S:1:pos:R:3:forces:R:3 energy=-27550.913294066162 free_energy=-27550.913294066162 stress="7.454585089476141e-08 -5.852494489228393e-09 4.175749764177672e-09 -5.852494489228393e-09 3.655713563122547e-08 -7.544330226937809e-09 4.175749764177672e-09 -7.544330226937809e-09 -6.80688529803304e-08" pbc="F F F"
C        0.71858782       1.32630050      -0.28055290      -0.00276262      -0.00459487      -0.02496103
C        1.43617924       0.03301685      -0.05168431      -0.00221437      -0.00071598      -0.00465459
C       -0.72265103       1.27471896       0.04195295       0.00238694      -0.00065885       0.00124924
N        1.39420503       2.29184565      -0.76712212      -0.00576271      -0.01946449      -0.06264807
C        0.73053531      -1.23965263      -0.18289128      -0.00060372      -0.00034836      -0.01241659
N        2.72975836       0.11452217       0.27062005      -0.01115081       0.00288537       0.02628871
C       -0.67477398      -1.21727314      -0.06751344       0.00121379       0.00053663      -0.00626774
N        1.39712342      -2.35185061      -0.45314031       0.00207251       0.00398541      -0.02618424
C       -1.41902004       0.04301611       0.09322063       0.00290056       0.00042396       0.00767008
N       -1.39035038      -2.46482492      -0.11689450       0.00147851       0.00087121      -0.00967532
N       -2.72424941      -0.00799283       0.27648658       0.00438817      -0.00027296       0.02542350
N       -1.43560349       2.50101356       0.15970524       0.00812889       0.00087470       0.01329525
O        3.39956282       1.09665596       0.48322247      -0.02062016       0.00586080       0.05197115
O        3.45429574      -1.08345175       0.40889194      -0.01064857       0.00440318       0.02703169
O       -2.60979111      -2.48336126      -0.25786578       0.00304334       0.00192721      -0.02188870
O       -0.77254896      -3.52452174      -0.00585416       0.00218387       0.00231419      -0.00003935
O       -2.65775245       2.50645577       0.36567458       0.01099607       0.00381165       0.03590481
O       -0.83037498       3.56141454       0.07068598       0.01284306      -0.00247778       0.00189351
H        0.82192680       3.12670866      -0.81309084      -0.00009021      -0.01548233      -0.07654676
H        4.32740544      -0.69681333       0.57708444      -0.01513970       0.00434920       0.05603200
H        0.88224422      -3.21949067      -0.39330800       0.00871592       0.00046645      -0.02453716
H        2.39472440      -2.33482453      -0.51033234       0.00198516       0.00961332      -0.02922351
H       -3.19395981       0.88377874       0.36094719       0.00523674      -0.00056743       0.03385870
H       -3.18778297      -0.89579860       0.18562260       0.00141933       0.00225977       0.01842443
