24
Properties=species:S:1:pos:R:3:forces:R:3 energy=-27551.066746970053 free_energy=-27551.066746970053 stress="-5.770421486346651e-09 3.2842320533880935e-10 4.1755019987996367e-10 3.2842320533880935e-10 -6.072302177123736e-09 2.685138171098438e-09 4.1755019987996367e-10 2.685138171098438e-09 -1.2087462940257495e-09" pbc="F F F"
C        0.68283157       1.30006383      -0.57569425       0.00154778      -0.00197766       0.00120461
C        1.41211287       0.08067120      -0.11483684      -0.00228612      -0.00063884       0.00555488
C       -0.71012245       1.28511343      -0.09421422       0.00118948      -0.00592325      -0.00163221
N        1.32765612       2.12506562      -1.29400738       0.00301974       0.00312795      -0.00004345
C        0.75431769      -1.21453255      -0.27435222       0.00037028       0.00045183       0.00336249
N        2.57606128       0.23329142       0.48204106      -0.00132451      -0.00309753       0.00348039
C       -0.63892384      -1.19989620      -0.13178299       0.00105332      -0.00463370      -0.00260430
N        1.48271648      -2.27556666      -0.58049446      -0.00252211       0.00238299      -0.00139594
C       -1.34355431       0.06414967       0.19084126       0.00257849      -0.00749008       0.00326609
N       -1.36602018      -2.42707149      -0.26508377       0.00040684       0.00149432      -0.00303174
N       -2.56068559       0.00214531       0.70113163      -0.00316993       0.00001477      -0.00215279
N       -1.41202756       2.51647170       0.01666671       0.00194106      -0.00026594      -0.00173876
O        3.18125849       1.25480934       0.73830448      -0.00050067       0.00347597      -0.00175302
O        3.21870842      -0.93847179       0.90941592       0.00218362      -0.00345558      -0.00001512
O       -2.57554551      -2.46163240      -0.06183767       0.00135458       0.00185214       0.00252047
O       -0.75719004      -3.44826906      -0.58659749       0.00013554       0.00054193      -0.00203263
O       -2.49940903       2.56426822       0.60231848       0.00072807       0.00192626      -0.00130162
O       -0.91027890       3.52328768      -0.46420474      -0.00405817       0.00816143      -0.00178339
H        0.74370052       2.92397307      -1.52067225       0.00032782      -0.00033050      -0.00185130
H        3.99356712      -0.53132689       1.32443654       0.00337631       0.00042982      -0.00186773
H        1.00597003      -3.16029561      -0.67384516       0.00336485      -0.00076776       0.00227866
H        2.47906251      -2.19254659      -0.62362623      -0.00465207       0.00302288      -0.00238375
H       -3.01839170       0.88618632       0.87180878      -0.00167596       0.00109780       0.00327532
H       -3.02198092      -0.88983005       0.72486755      -0.00338825       0.00060078       0.00064485
