24
Properties=species:S:1:pos:R:3:forces:R:3 energy=-27551.235039617364 free_energy=-27551.235039617364 stress="2.3012008971365614e-09 8.617218120455874e-09 -1.8170195651142992e-09 8.617218120455874e-09 -3.0574928174878327e-10 -4.4690473881954755e-09 -1.8170195651142992e-09 -4.4690473881954755e-09 3.0969275879412883e-09" pbc="F F F"
C        0.74310792       1.23010902      -0.43725113      -0.00063397      -0.00411376       0.00230410
C        1.42073579      -0.05503815      -0.05895192      -0.00175881       0.00144908       0.00064381
C       -0.65421233       1.23982406       0.04374979       0.00254605      -0.00256102       0.00196106
N        1.38860731       2.08118592      -1.12569708      -0.00459154       0.00022932      -0.00118993
C        0.69143664      -1.30716039      -0.30222450       0.00247107      -0.00110570      -0.00212656
N        2.63425961      -0.06670453       0.44301576       0.00351603      -0.00058125       0.00033423
C       -0.70220683      -1.22954760      -0.25500020       0.00130916      -0.00076823      -0.00013195
N        1.39784173      -2.39545689      -0.55296938      -0.00400025      -0.00130081       0.00214913
C       -1.36290569       0.03284429       0.17199413       0.00454252       0.00047934      -0.00157363
N       -1.47613372      -2.40181360      -0.54392047      -0.00095107       0.00096721      -0.00040054
N       -2.59848935      -0.02186375       0.62851775       0.00280768       0.00445229      -0.00628559
N       -1.29140571       2.48432663       0.28062143      -0.00007202      -0.00060290       0.00537202
O        3.35202805      -1.04146095       0.72547739      -0.00070307      -0.00382663      -0.00061932
O        3.19088412       1.15075282       0.71042664      -0.00268335       0.00192527      -0.00135964
O       -2.68415708      -2.42083094      -0.32318473      -0.00394078       0.00205485       0.00086693
O       -0.90894360      -3.38145899      -1.02228471       0.00267127      -0.00287790       0.00280342
O       -2.39607130       2.52153366       0.83665290      -0.00350952       0.00493780       0.00667602
O       -0.72397649       3.51570710      -0.05777588       0.00006950      -0.00255291       0.00203043
H        0.81003844       2.89704603      -1.29199370      -0.00181305      -0.00156714      -0.00104613
H        4.03581939       0.89665500       1.11387138      -0.00011438       0.00231473      -0.00227450
H        0.89714290      -3.24769117      -0.74994894      -0.00298982      -0.00157831       0.00041451
H        2.38967664      -2.35566422      -0.37822383       0.00622536       0.00237924       0.00079874
H       -3.01913596       0.85885952       0.88787787      -0.00406393      -0.00126843      -0.00630286
H       -3.09093700      -0.89608360       0.56319548       0.00566693       0.00351586      -0.00304375
