24
Properties=species:S:1:pos:R:3:forces:R:3 energy=-27550.914981321 free_energy=-27550.914981321 stress="-1.3450097989838625e-08 -8.381761853541265e-10 -4.738092212947485e-10 -8.381761853541265e-10 -1.1567360190580751e-08 6.364260510764815e-10 -4.738092212947485e-10 6.364260510764815e-10 -1.0431784085518802e-09" pbc="F F F"
C        0.68429512       1.14153268       0.26146952      -0.00072299      -0.00019074       0.00167056
C        1.34225471      -0.05977085       0.29550685       0.00056998       0.00005451      -0.00228189
C       -0.70053276       1.20032940       0.04944953      -0.00176657       0.00101502      -0.00021568
N        1.57728588       2.13584618       0.50853312      -0.00039636      -0.00151252       0.00267111
C        0.69768111      -1.30469056       0.21447382       0.00141306      -0.00038527      -0.00391598
N        2.75300623       0.17006437       0.32462588      -0.00045020       0.00128787      -0.00095154
C       -0.72657210      -1.27006942       0.07771215       0.00038117      -0.00033838       0.00132373
N        1.45873449      -2.39766042       0.26882713       0.00155650      -0.00008397       0.00340177
C       -1.44310795      -0.01827579      -0.02436542       0.00040980       0.00012155      -0.00346867
N       -1.43868052      -2.51423177       0.01509795      -0.00159280      -0.00164632       0.00280009
N       -2.75835731       0.02428957      -0.19177313      -0.00114629      -0.00023446       0.00284820
N       -1.27973908       2.48976626      -0.13223894      -0.00187889       0.00067389      -0.00008077
O        2.85787090       1.49868034       0.69838382       0.00130388      -0.00191091       0.00203786
O        3.18555658       0.07792256      -1.04443230      -0.00096818      -0.00142641      -0.00191323
O       -2.66435092      -2.52841356      -0.05326808      -0.00136893      -0.00201787      -0.00336769
O       -0.80041582      -3.56396980       0.03654017      -0.00323853      -0.00210276       0.00419059
O       -2.49797790       2.62726054      -0.20053838      -0.00419006       0.00038804       0.00428847
O       -0.51288468       3.44280994      -0.22478850       0.00189703       0.00185580      -0.00200277
H        1.61560063       2.94286643      -0.09771469       0.00295401       0.00616572      -0.00166220
H        4.14750234       0.09071499      -0.98003577       0.00235793       0.00033554       0.00074062
H        1.03485280      -3.30408272       0.19769496       0.00260924      -0.00078144      -0.00068271
H        2.44862372      -2.27896860       0.37884920       0.00230294      -0.00042350      -0.00097034
H       -3.18888876       0.93344603      -0.23765963       0.00353410      -0.00005945      -0.00118207
H       -3.26215277      -0.84508655      -0.21738709      -0.00356982       0.00121606      -0.00327748
