24
Properties=species:S:1:pos:R:3:forces:R:3 energy=-27551.23484399257 free_energy=-27551.23484399257 stress="-1.1384561525022112e-08 2.2856275825933048e-09 -1.0147270439498895e-09 2.2856275825933048e-09 -3.9766060964230725e-09 2.554032127637305e-09 -1.0147270439498895e-09 2.554032127637305e-09 -7.810593592970696e-10" pbc="F F F"
C        0.73758194       1.22625384       0.47462016       0.00214509       0.00040840      -0.00049765
C        1.42122689      -0.02372264       0.00184882      -0.00029839      -0.00115478       0.00349428
C       -0.66758211       1.25220229       0.01866368       0.00363622       0.00036386      -0.00346303
N        1.38723247       2.03784157       1.20560660      -0.00107372       0.00075937       0.00410990
C        0.70871966      -1.29714894       0.17274963      -0.00142511      -0.00180460      -0.00039359
N        2.62577477       0.01070851      -0.52011752      -0.00048403       0.00199847       0.00135909
C       -0.68602518      -1.23327808       0.14523373      -0.00037360      -0.00235894      -0.00607090
N        1.43080408      -2.39008144       0.34678013       0.00011917      -0.00092714      -0.00625000
C       -1.36571240       0.04877563      -0.18158244       0.00015342       0.00138297       0.00235164
N       -1.44308369      -2.43353643       0.35478745       0.00179028       0.00192216       0.00136261
N       -2.60918809       0.01265386      -0.61729910      -0.00306749       0.00298243       0.00660965
N       -1.32264440       2.50265146      -0.11993435      -0.00149425      -0.00390067       0.00411160
O        3.34727080      -0.93528256      -0.88041510      -0.00127221      -0.00179795       0.00699559
O        3.16641134       1.24907269      -0.71324851       0.00439162       0.00291452      -0.00505996
O       -2.65253541      -2.45305507       0.14173401      -0.00207887       0.00076650       0.00274909
O       -0.85964734      -3.43783323       0.75608498       0.00367417      -0.00052623       0.00089990
O       -2.43381812       2.56664643      -0.66014496      -0.00556170      -0.00423055      -0.00531817
O       -0.76416720       3.51366197       0.28759798       0.00650683       0.00330915      -0.00544584
H        0.80415603       2.83515537       1.43416846      -0.00440391      -0.00163711       0.00354039
H        4.00634677       1.03145618      -1.14717155       0.00164481       0.00267313       0.00064403
H        0.94218009      -3.26015216       0.48888069       0.00121967      -0.00181401      -0.00023889
H        2.41994499      -2.32616015       0.16379187      -0.00004961      -0.00349932      -0.00330784
H       -3.04429310       0.90436235      -0.80488903      -0.00165597       0.00181947      -0.00434398
H       -3.08950267      -0.87070280      -0.60808738      -0.00204240       0.00235088       0.00216211
