24
Properties=species:S:1:pos:R:3:forces:R:3 energy=-27552.89272696061 free_energy=-27552.89272696061 stress="1.7585616814671385e-08 -5.81579835440902e-09 1.8180546464337599e-09 -5.81579835440902e-09 2.03006546596071e-08 1.6788565653687722e-09 1.8180546464337599e-09 1.6788565653687722e-09 6.621762244933116e-10" pbc="F F F"
C        0.74516441       1.27536565       0.02965479       0.00951121      -0.00161071      -0.00211634
C        1.45452632       0.02550558      -0.06405179       0.00178168      -0.00117710       0.00390807
C       -0.69012948       1.24846529       0.02909388       0.00836890       0.00302606       0.00107804
N        1.39473446       2.41889515       0.08863031      -0.00087344       0.00742275      -0.00431153
C        0.75504153      -1.23025000       0.02154333      -0.00341993      -0.00260148      -0.00595653
N        2.88278929       0.03098288      -0.19334960       0.00025580      -0.00140314      -0.00027998
C       -0.68065970      -1.21420773       0.02918403      -0.00223299       0.00353423       0.00054299
N        1.41309585      -2.36961153       0.06878012      -0.00100415       0.00112249      -0.00022502
C       -1.42045822       0.01442571      -0.04054865       0.00043144       0.00579909      -0.00345803
N       -1.39484644      -2.46009098       0.08146449       0.00207212      -0.00308133       0.00679028
N       -2.73565515       0.00987579      -0.10787014       0.00152193      -0.00076260      -0.00114577
N       -1.41346128       2.48940629       0.07608846      -0.00402409      -0.00076536       0.00209169
O        3.50315363      -1.02819065      -0.27847715       0.00019291       0.00402032       0.00105639
O        3.49982859       1.09461289      -0.23595335      -0.00264649      -0.00067802       0.00278221
O       -2.58160645      -2.50597971      -0.23548531       0.00692798       0.00251495       0.00431549
O       -0.82106358      -3.48356252       0.44789034      -0.00336179       0.00321466       0.00064617
O       -2.59727722       2.52622152      -0.25256267       0.00279533       0.00111328       0.00594130
O       -0.85087439       3.51710460       0.44805678      -0.00282501      -0.00893492       0.00098763
H        0.85421423       3.25824974       0.22388741       0.00276985      -0.00500238      -0.00176085
H        2.40062141       2.38382123       0.02624893      -0.00813808      -0.00211032       0.00044602
H        0.87999920      -3.21337899       0.20441274      -0.00345413      -0.00078387      -0.00168401
H        2.41775368      -2.32750736      -0.00465673      -0.00156511       0.00183917      -0.00105725
H       -3.20240063       0.89935884      -0.18534298       0.00239900      -0.00122982      -0.00353054
H       -3.19532000      -0.88354618      -0.18114320      -0.00548293      -0.00346598      -0.00506044
