24
Properties=species:S:1:pos:R:3:forces:R:3 energy=-27552.510694340977 free_energy=-27552.510694340977 stress="2.0470197839876202e-11 3.3165526019043006e-10 -1.0002598665233029e-11 3.3165526019043006e-10 3.655704040503898e-10 -6.259582352362143e-12 -1.0002598665233029e-11 -6.259582352362143e-12 1.0698003189760503e-11" pbc="F F F"
C        0.67895413       1.24770200      -0.00903143       0.00023311      -0.00257084       0.00326191
C        1.34199558      -0.00842511       0.00472690       0.00131598      -0.00379043       0.00229202
C       -0.75074243       1.27234419      -0.01088553       0.00279899      -0.00047677      -0.00051978
N        1.60178550       2.17929673      -0.01761692      -0.00264633      -0.00015103      -0.00078173
C        0.67772886      -1.28934200       0.01701405       0.00007622      -0.00247892      -0.00170867
N        2.62805368       0.17153695       0.00451720       0.00114297       0.00158663       0.00035056
C       -0.71680037      -1.23823654      -0.00016535      -0.00147988       0.00001142       0.00157496
N        1.47850808      -2.34466108       0.03691275       0.00127384      -0.00190564      -0.00360223
C       -1.45448211       0.04899099      -0.01111588       0.00007247       0.00102439       0.00009793
N       -1.43141321      -2.49553446      -0.00413989      -0.00072836       0.00093947       0.00169019
N       -2.77578376       0.03112370      -0.01179611      -0.00057088       0.00302161       0.00016942
N       -1.41306854       2.53595642      -0.01070270      -0.00058268      -0.00134430       0.00008598
O        2.79669561       1.49171849      -0.00924265      -0.00241485       0.00242915       0.00086583
O       10.00000000       0.00218035       0.00000000       0.00000000       0.00034957       0.00000000
O       -2.65248780      -2.52512671      -0.09030005      -0.00091475      -0.00236527       0.00256736
O       -0.77922052      -3.53145426       0.07660329       0.00467659       0.00362629      -0.00074951
O       -2.65026492       2.59031387      -0.01780083      -0.00085553      -0.00349737       0.00229354
O       -0.72083959       3.53372727      -0.00280524       0.00050397      -0.00130167      -0.00251221
H        9.23955159       0.58598946       0.00000000      -0.00044080      -0.00017479       0.00000000
H       10.76044841       0.58598946       0.00000000       0.00044080      -0.00017479       0.00000000
H        1.08074041      -3.26737502       0.05705764      -0.00282134      -0.00125763      -0.00073672
H        2.47131076      -2.18722587       0.04130718       0.00098163       0.00179362      -0.00004930
H       -3.23278489       0.93319625      -0.01410212      -0.00044127       0.00467922      -0.00399210
H       -3.24758878      -0.85602263      -0.03329985       0.00038010       0.00202806      -0.00059744
