24
Properties=species:S:1:pos:R:3:forces:R:3 energy=-27552.893081450664 free_energy=-27552.893081450664 stress="-9.806588681390105e-09 1.2265474325850558e-09 -2.6465353486749402e-09 1.2265474325850558e-09 1.154936177005302e-08 -8.316044559978814e-10 -2.6465353486749402e-09 -8.316044559978814e-10 3.4681944988258505e-10" pbc="F F F"
C        0.72428586       1.25289622       0.03093742       0.00224717       0.00407175      -0.00449631
C        1.42871152       0.00061259      -0.06208186       0.00016893      -0.00003562      -0.00053842
C       -0.71114656       1.23129975       0.02823473      -0.00021336       0.00241582      -0.00320039
N        1.37699786       2.39495644       0.08465257       0.00260134       0.00234632      -0.00285499
C        0.72470091      -1.25215621       0.02471311      -0.00011213       0.00028935      -0.00443560
N        2.85664327      -0.00015128      -0.19503282      -0.00259992      -0.00372133      -0.00423451
C       -0.71018844      -1.23014714       0.03712106      -0.00061562      -0.00170601      -0.00402511
N        1.37770428      -2.39492003       0.07133075       0.00221188      -0.00354986      -0.00216454
C       -1.44568385      -0.00005075      -0.04425662       0.00026271       0.00073588       0.00162108
N       -1.42849845      -2.47322344       0.09991534       0.00058086      -0.00105616       0.00372392
N       -2.76027639      -0.00084381      -0.12479193       0.00765622      -0.00177251       0.00027060
N       -1.43028350       2.47438210       0.07437415      -0.00334601      -0.00000869       0.00160717
O        3.46576031      -1.06042678      -0.33090089      -0.00158554       0.00018644       0.00332200
O        3.48336993       1.05848624      -0.19024401      -0.00244885      -0.00011361       0.00587549
O       -2.61224270      -2.51935238      -0.22698079      -0.00448078      -0.00415500       0.00251377
O       -0.86087695      -3.49268979       0.48627155       0.00112276       0.00619407      -0.00058452
O       -2.61401910       2.51488460      -0.25411390      -0.00442683       0.00535257       0.00135434
O       -0.86477593       3.50033298       0.44651106       0.00184122      -0.00434076       0.00046258
H        0.83872476       3.23628437       0.21552433       0.00084540      -0.00004319       0.00307859
H        2.38314419       2.35646543       0.03509791       0.00391220      -0.00644248       0.00190817
H        0.84174156      -3.23571641       0.21377827       0.00286366       0.00200374       0.00367899
H        2.38096134      -2.36045783      -0.01910394       0.00001388       0.00540438      -0.00056268
H       -3.22234801       0.89079548      -0.20642105      -0.00443325      -0.00504812      -0.00077533
H       -3.22248839      -0.89293053      -0.19904041      -0.00206594       0.00299304      -0.00154427
