
  NIST    08031404083D 1   1.00000    -0.04109
Copyright by the U.S. Sec. Commerce on behalf of U.S.A. All rights reserved.
 24 24  0  0  0  0  0  0  0  0999 V2000
    6.3400    1.9406   -0.5818 C    0  0  0  0  0  0  0  0  0  0  0  0
    6.8871    0.6211   -0.3518 C    0  0  0  0  0  0  0  0  0  0  0  0
    4.9043    2.1038   -0.6497 C    0  0  0  0  0  0  0  0  0  0  0  0
    7.1446    2.9854   -0.7385 N    0  0  0  0  0  0  0  0  0  0  0  0
    6.0184   -0.5086   -0.1019 C    0  0  0  0  0  0  0  0  0  0  0  0
    8.3105    0.4363   -0.3401 N    0  0  0  0  0  0  0  0  0  0  0  0
    4.5856   -0.3213   -0.1669 C    0  0  0  0  0  0  0  0  0  0  0  0
    6.5295   -1.7025    0.1762 N    0  0  0  0  0  0  0  0  0  0  0  0
    4.0193    0.9717   -0.4831 C    0  0  0  0  0  0  0  0  0  0  0  0
    3.7144   -1.4379    0.0676 N    0  0  0  0  0  0  0  0  0  0  0  0
    2.7050    1.1208   -0.6016 N    0  0  0  0  0  0  0  0  0  0  0  0
    4.3507    3.4047   -0.8985 N    0  0  0  0  0  0  0  0  0  0  0  0
    8.8080   -0.6925   -0.1476 O    0  0  0  0  0  0  0  0  0  0  0  0
    9.0827    1.3982   -0.5326 O    0  0  0  0  0  0  0  0  0  0  0  0
    2.4786   -1.3259   -0.0701 O    0  0  0  0  0  0  0  0  0  0  0  0
    4.1731   -2.5443    0.4198 O    0  0  0  0  0  0  0  0  0  0  0  0
    3.1213    3.5587   -1.0524 O    0  0  0  0  0  0  0  0  0  0  0  0
    5.0862    4.4115   -0.9623 O    0  0  0  0  0  0  0  0  0  0  0  0
    6.7108    3.8922   -0.8798 H    0  0  0  0  0  0  0  0  0  0  0  0
    8.1447    2.8134   -0.7103 H    0  0  0  0  0  0  0  0  0  0  0  0
    5.8777   -2.4572    0.3658 H    0  0  0  0  0  0  0  0  0  0  0  0
    7.5409   -1.7887    0.1780 H    0  0  0  0  0  0  0  0  0  0  0  0
    2.3579    2.0499   -0.8177 H    0  0  0  0  0  0  0  0  0  0  0  0
    2.1273    0.2973   -0.4656 H    0  0  0  0  0  0  0  0  0  0  0  0
  1  4  1  0
  2  6  1  0
  3 12  1  0
  5  8  1  0
  6 13  2  0
  6 14  2  0
  7 10  1  0
  9 11  1  0
 10 15  2  0
 10 16  2  0
 12 17  2  0
 12 18  2  0
  1  2  1  0
  2  5  2  0
  5  7  1  0
  7  9  2  0
  9  3  1  0
  1  3  2  0
  4 19  1  0
  4 20  1  0
  8 21  1  0
  8 22  1  0
 11 23  1  0
 11 24  1  0
M  END
> <COPYRIGHT>
Collection (C) 2016 copyright by the U.S. Secretary of Commerce on behalf of the United States of America. All rights reserved.

> <DATE>
2014-08-03

> <CAS.NUMBER>
3058-38-6

> <METHOD>
PM6

> <DIPOLE.MOMENT>
0.2677 debye

> <ELECTRONIC.ENERGY>
-0.410874295702E-01 hartree

> <IR.FREQUENCIES>
"Frequency (cm-1)"   "Intensity (km/mol)"
3.2359  0.3589
50.9151  0.6024
51.2952  20.1612
67.2288  0.0720
77.5992  0.2808
83.5002  0.4339
189.9469  3.5719
237.2580  8.4534
247.9187  7.2007
305.4179  0.5196
316.8888  1.2781
338.1105  3.1698
352.2353  0.0128
365.6932  3.3356
400.1827  0.0344
462.0682  14.0751
466.8647  18.5606
469.5926  5.4134
497.2616  3.7588
503.5296  8.0313
552.4636  1.5608
556.3758  1.8389
566.0920  0.0601
627.8181  0.2625
628.3947  0.1559
660.4457  41.4582
672.5766  112.2197
677.0061  75.1378
684.0384  163.6723
697.8768  69.6556
705.0450  77.5627
733.1715  397.4278
765.1674  0.2817
811.6468  14.0505
812.4505  11.1606
822.5060  3.7583
904.4851  1089.3442
1007.4689  81.5039
1008.0773  93.0518
1187.1686  73.1448
1189.1328  105.4267
1212.8723  0.0337
1305.8093  3.5824
1308.2713  0.2866
1313.7863  0.2606
1415.2268  1314.5919
1416.5669  1522.1292
1421.1558  14.3087
1438.2519  0.0537
1506.6027  34.3868
1512.5479  47.1999
1552.1122  477.6782
1555.7212  423.2135
1603.8307  0.8722
1626.7421  932.0955
1627.5155  712.0173
1657.4155  9.7989
1663.8020  3.3070
1709.2161  1035.5808
1709.7350  1023.3958
2604.1108  294.0892
2608.0283  225.5943
2618.3931  274.4949
2629.7451  428.0408
2637.1753  235.7811
2644.5174  758.4842

> <ROTATIONAL.CONSTANTS>
0.46415 GHz
0.46126 GHz
0.23811 GHz

> <SOFTWARE>
Gaussian 09, Revision D.01

> <CONTRIBUTOR>
Ethan Ho

$$$$
