24
Properties=species:S:1:pos:R:3:forces:R:3 energy=-27552.52476550742 free_energy=-27552.52476550742 stress="-8.215052276466893e-10 3.3696648846087968e-09 -6.73484221183051e-10 3.3696648846087968e-09 3.037929402716397e-09 1.30196191026683e-09 -6.73484221183051e-10 1.30196191026683e-09 -3.818674967000742e-10" pbc="F F F"
C        0.88065958       1.22859310       0.52860199       0.00164575      -0.00225084      -0.00190549
C        1.50718989      -0.00657699       0.84513884      -0.00199100      -0.00253105       0.00045639
C       -0.42212545       1.20865000      -0.06010437       0.00073936       0.00210175      -0.00221795
N        1.70271793       2.18819617       0.87911471       0.00064151      -0.00322029       0.00386614
C        0.92671688      -1.30712675       0.61321528      -0.00505949      -0.00355689       0.00557650
N        2.67362556       0.21276335       1.37209270       0.00113853      -0.00128753      -0.00340246
C       -0.34658233      -1.29948676       0.04137767      -0.00085532       0.00131069      -0.00509272
N        1.67574810      -2.33769169       0.97541727       0.00556672      -0.00177364      -0.00032115
C       -1.04254832      -0.03569777      -0.30381297      -0.00534113       0.00486436       0.00464787
N       -0.97528868      -2.57756521      -0.20835934      -0.00124588       0.00156505      -0.00129542
N       -2.24705578      -0.09282217      -0.84326980      -0.00187320       0.00382273      -0.00222916
N       -1.04757929       2.45056591      -0.37999236      -0.00032790       0.00046582      -0.00004835
O        2.80295211       1.53680338       1.39791580       0.00126228      -0.00110461      -0.00289348
O        5.60998385       6.28365586       1.81099997      -0.00114112      -0.00040402      -0.00067272
O       -2.09757548      -2.64319527      -0.69368231      -0.00093745      -0.00198459      -0.00129427
O       -0.35283129      -3.59468404       0.08048392       0.00226237       0.00244837       0.00158068
O       -2.18503893       2.46684118      -0.86947335       0.00178638       0.00154229      -0.00410008
O       -0.42539317       3.46857358      -0.15370238       0.00277709      -0.00357668       0.00511125
H        4.78388636       5.85190904       1.58600038      -0.00225028      -0.00115878      -0.00044530
H        5.42039010       7.22208873       1.76225338      -0.00199497      -0.00159774      -0.00046339
H        1.32939578      -3.27138213       0.83882405       0.00279476      -0.00138354       0.00059826
H        2.57866816      -2.15206180       1.37603826       0.00471690       0.00533135       0.00451276
H       -2.67993843       0.79593942      -1.05694325      -0.00626613       0.00127877      -0.00258095
H       -2.66408149      -0.99325689      -1.00289025       0.00395224       0.00109902       0.00261305
