24
Properties=species:S:1:pos:R:3:forces:R:3 energy=-27551.366706687386 free_energy=-27551.366706687386 stress="-3.3022085487310063e-10 1.1261808321965729e-09 -8.886058281880276e-11 1.1261808321965729e-09 9.152653719720575e-09 -1.1079506969174386e-10 -8.886058281880276e-11 -1.1079506969174386e-10 1.299507163385168e-10" pbc="F F F"
C        0.91260917       1.24702263       0.50580721      -0.00248717       0.00177783       0.00042730
C        1.57709513       0.03728240       0.84420880      -0.00101314       0.00188603      -0.00911895
C       -0.37194021       1.25274711      -0.05918483      -0.00085954       0.00320149      -0.00021012
N        1.77915363       2.16034098       0.85246735      -0.00034042      -0.00090276       0.00263825
C        0.96898623      -1.25663045       0.62540585       0.00045267       0.00300877      -0.00187723
N        2.74949030       0.26041105       1.34897130      -0.00439020       0.00074906       0.00043723
C       -0.32494825      -1.25840394       0.05179706       0.00010093       0.00277587       0.00246135
N        1.70085406      -2.28911125       0.98653253       0.00039407       0.00267916       0.00624738
C       -1.00995635      -0.01183432      -0.29696313       0.00047291       0.00282016      -0.00354060
N       -0.95253756      -2.52482001      -0.17982654      -0.00133682       0.00263402       0.00699834
N       -2.20873456      -0.02852171      -0.82685826      -0.00155515      -0.00334074       0.00306913
N       -0.94191148       2.51387989      -0.35310610      -0.00123149       0.00121421       0.00069920
O        2.93103534       1.57923906       1.37735215       0.00030184      -0.00067815      -0.00417723
O        4.46175821       6.10686954       1.49615461       0.00191499      -0.00293576       0.00128063
O       -2.06198898      -2.58922569      -0.69786284      -0.00025520       0.00354540       0.00350518
O       -0.35016697      -3.54696221       0.15435349       0.00371600       0.00155460      -0.00729850
O       -2.06270856       2.60242745      -0.84809386       0.00077136      -0.00437525      -0.00045711
O       -0.25883404       3.50449124      -0.08662629       0.00248174      -0.00027199      -0.00231928
H        1.74962980       3.16915802       0.78731579      -0.00444773      -0.00454313       0.00116145
H        5.31138728       6.46750085       1.75979272       0.00122822      -0.00359586       0.00197413
H        1.32216940      -3.21602990       0.86158451       0.00124305       0.00561919      -0.00238188
H        2.61177646      -2.12717267       1.38162720       0.00369785      -0.00463950       0.00249571
H       -2.63271453       0.86236419      -1.04295884       0.00192010      -0.00344641      -0.00161119
H       -2.64737166      -0.91984713      -0.99600901      -0.00077886      -0.00473624      -0.00040319
