72
Lattice="9.0 0.0 0.0 0.0 9.0 0.0 0.0 0.0 9.0" Properties=species:S:1:pos:R:3:momenta:R:3:forces:R:3 energy=-65303.17088038477 free_energy=-65303.17088038477 stress="-93.1383316186557 45.332368827160494 103.073572396905 45.332368827160494 -70.58839163237312 -92.34492348251028 103.073572396905 -92.34492348251028 -285.4645115312071" pbc="T T T"
C  298508948.78303975 -419524127.24105531 454898723.88402027  -23168.23188435  786171.68455244 -1393175.60526134      71.24151145     -85.38959392    -205.97988346
C  39766548.16647766 -28297713.35733272 72286639.31690574  532143.57413608    2461.03586174   97458.33632720    -128.55243020      59.95745242     -68.01294883
C  106982458.08993362 162208681.58080354 80199092.48661815  155379.07811324 -771519.28521603  506159.04345489   -2108.03588200    3922.23186382  -14750.64670914
N  -184422268.50523052 72317238.34981862 -21356070.47667515  288275.99929796   29808.50205869  -80484.95712182    5545.36268305    -399.51742041    7370.66274135
C  55514350.01917915 -58140696.52811018 20307738.45298830 1402759.71108060 -1891367.15689512  941420.19132791    -898.29310761     371.51547103    2479.00384895
N  84187427.25004506 186276846.68509555 117951920.01180534 -605531.61330599  283500.60031160  -10422.93145397     -91.56271790     -27.67917119     377.26482256
C  -61394293.14304107 195780254.38198909 -13548864.26560906 -266317.68498694 -1116456.94359954 -576194.77822039    3020.91887110    1238.42860483   -5410.70675971
N  399913697.43436468 183314044.15279543 -487429745.30490988 -409160.15586054 -348192.29311120   50530.76074673     233.00083898     -13.70636144    -256.24201292
C  190791326.06215626 -194485245.65990540 83405141.19172093 -4467342.03977108 -2834746.04024718 -2233235.30006088    -434.20797403     133.61091850     169.11396329
N  -281319660.25081182 216300634.12268585 -210723099.45942318 -1079808.56813093  474210.88921371 1112287.51813596    1648.31985377   -2358.86350017    4468.69644145
N  156351915.25172511 -127083874.11867830 -310428947.59330547  134086.39790495   59341.84324927 -406147.11987422     309.08601422   -1935.16474377    2724.08824758
N  143292187.38852835 2102847404.09712791 -726058721.86863065 -352252.19488919   79826.59234321    3324.69469070    1540.38184188    -452.65099956    1300.71287104
O  1259636960.87168598 10456382.28168313 475950392.61973578 -1339402.11449757 1067162.22010384 3895404.62195003     749.88517138    -993.78561712    -186.41642658
O  -449089658.49843919 -219870793.98723105 1039195439.60684550 1095687.60614873 5259761.98032444 -3238327.44714837     110.09481161       7.20123240     -89.46865451
O  1088641257.44713974 -104604020.27885297 1031811385.99437046 -31732563.37242405 33581778.40128357 23599415.46152931      43.18869065     -15.02749212    -162.77866545
O  -86618863.52118042 -842410957.44371891 -1064433819.67529678 -33666351.80858741 -9614924.88614202 52877603.94568569    1419.66114914     386.61637058    -181.95170068
O  397063753.39319098 -960908297.32539523 847720336.92267478 3250831.50959654 -4689420.36489526  128968.76053705    -854.47069917   -1931.57952209     759.55980856
O  315133012.81980497 348126617.63588774 -563831194.89248061  232872.89060089 -653569.88399886 -205680.04461292    -196.20456083     138.69909378     344.72126844
H  221991913.52089354 -42366093.09299236 -108077364.56747860 -944251.00130006 1070129.56269028 -271727.93394726    -127.64505322     129.35464167    -116.68448446
H  -107184905.89242119 -137789232.82840487 200612708.99094272  913467.00449817 -2977347.23112477  235445.04135160      96.88401759     -90.16370100     -27.22466216
H  -229274416.19618955 53687230.25210810 347550009.98316598   62073.88561714   -6629.72548705 -134010.20974710    -147.76919337     251.06641188     190.08820449
H  170366684.12652180 -200152832.53915343 -216789178.41697097    7737.18932650   14705.15373990  -12546.62962873   -1134.99842002      92.88175774      90.82612079
H  -266200697.59659547 -52872326.30571260 -28757791.73849953    1234.48949922  199181.31144294   38123.66753676     259.85844796     -89.42864944    -149.98811145
H  162119033.72145873 479563550.05427599 58566163.91098915   50505.39610814  202081.17028072  -38902.82638449      70.39338246     186.43533187     211.02426904
C  -330110445.53068465 -1242192649.57448459 -78009106.31478991 -15711329.74915653 4488067.21295117 -2124361.51020407    -714.06530457     -85.89245678    -864.08339368
C  343951256.68657291 710760787.70321298 -1216630066.85095859 -944284.66505560 -1974324.31282940 1926098.84811894    -106.09683119    -126.96036780      65.06615811
C  -30921570.42209169 34802575.57197981 -30153492.91212819  431990.95708011  -94433.19271728  695624.27515772      -6.11331411    -190.32136623    -171.06226013
N  -156861423.11553237 -34340597.56793544 517718831.15696603  900636.07434013  238803.47789680  163076.42029647     -90.11480783    -696.78489787     -31.68890952
C  -412215181.98406821 -87674956.98178397 161288334.39369476  -60937.98884798  121964.04502051 -147116.74063972     957.05578868    -525.01241173    -104.45268336
N  29208713.95228122 -195949853.44136673 -184487522.71721673 1288790.08346775 5199017.99835479 -5176533.79107193     -43.69679980     212.54964459      47.95143983
C  991900522.42821431 -304602436.84334797 345669190.10985476  548388.51752623  351759.76030928 -491988.12784180    -170.93228266    -195.54358234     326.71056912
N  -64351183.83125290 -75299921.37623827 -24416504.65309570 1795794.80894702 7403319.35426678 1691874.11757742  147935.06850423 -162453.19410003 -267842.83148886
C  190995787.76881981 109125879.13893110 -32060827.69510109   78400.61959554  126791.27557564 -259947.15700482     167.88899775    -241.43779055     139.54814310
N  -249402884.38342470 84147411.53514588 -197140475.25906736  616984.09807700 -145243.66228577 -164282.33057703      -7.27114896      44.19761168     109.53276374
N  72818635.44601557 684718604.14695644 36005449.96710252  732465.00832081  -17279.41017477 -1055829.29391452      44.09451321    -160.16571245    -497.96168887
N  -696269968.26626372 -10685351.29713762 -5072884.43956289  917722.07303014 1220511.78146481  871135.47719231    -188.17033422     -37.08822062     149.41710254
O  -1226474427.25093317 -674498246.40140235 -455810980.26480335 -894844.82228548 -5671339.38326635 -2383465.94696330     114.35648436     579.01691003    1141.18050515
O  -2284022225.28884459 773083310.90315747 -1005422442.23079515 -9232851.92456569 13695929.22137239 19643574.21704115   -5105.54207701   -2751.05657387   -2163.02005821
O  -937144714.25009012 343993829.21427220 2212783992.25148964 -1406587.55623093 -2742300.33747684  512669.92949660      -6.77881305    -315.85616473    -112.01263729
O  1129374157.93410611 252620500.49304265 117405828.79172325 1335454.04209843 -885637.32278978 2687934.96268074    -104.08685818    -339.47340654     -26.17073857
O  2113693567.05524564 -1272988759.68736696 1654804741.42745090 1581281.87025756 1357643.46396761 9607782.75319839   -4451.06196268   -5601.59762274    -385.10170393
O  865554893.67287517 111472727.92595318 -579317999.20655525 36046255.57605392 27986122.90235155 -45748871.12861024   75812.65713341  -20719.52009159 -202966.04923943
H  -29410803.34745630 242301823.89263690 188097907.06561145   -7045.47677092  362649.13056625  105791.07999656     -75.18364342     583.86645522     918.90246855
H  5661938.92778121 -80167370.28675359 -89012365.56319420 -102505.09523944 -406069.74193233  -77757.77392890    -113.74529267     212.03431176     154.04385048
H  36759849.76730714 -522087735.13191032 -590450743.56465983   44836.44363060   -4682.54836415 -144736.84900526    -244.13265076      73.16052938     399.06995972
H  363918883.11741638 -60711985.49401861 -131328854.26036412  360620.95633324  194287.66107227  110607.40889358     312.26805870    2574.74609688    -413.80527966
H  18815662.50664320 -8453112.61017567 -271584674.23327941   35784.41629829  -85838.03520147  -11998.62829763    -389.95192609     312.26690998      99.94354301
H  12240334.70784796 -421913861.75735486 -56741726.58742882   53204.53686926  -22772.51805149   95059.06456793      86.42583204     -93.38707461     131.93414647
C  203965841.60977706 183671244.77295446 -73102526.67679796  391341.60475547  -87311.30526664  -51591.51866274    4504.68681901    1815.97336231    6235.44384961
C  -363520242.77591425 498463739.70477188 196553475.85464463  262997.94302773 1070545.38699709 -512576.87159397     175.96591835      29.13390490    -259.30466329
C  349222051.83309144 -162748804.15227783 -64211902.51663075 -835828.99100304  805893.91339014 -494787.64138299     133.78847546    -220.84251482    -113.71559534
N  805338369.92469776 -469971838.45799166 360425895.49454993 3302959.74021042 3478281.56315176 2319283.96930212      85.45510256     847.61461243     707.74008906
C  -101930131.89709610 -116785828.59961593 33998906.88639366  327766.87721435 -554394.02808827  225405.04926812   -3487.29031767    1972.80213285   10654.76074059
N  -20599800.60704029 -109209596.57934032 -151684409.79103106 3515304.60833845 1919290.47055165 -7029528.32104002    -181.16702138      75.31172961    -125.25720161
C  -84962350.25444312 -154937840.92017367 199574971.12211829   44317.84835551   -1601.66214593  -72910.20685099     120.26859911     -54.20837274    -103.05177888
N  122161466.05161913 -285210135.64138901 -198900668.80710584 -2554245.92490067 -910367.44239333 1736505.18627122     119.98962948      48.01274953     161.86279286
C  -123160660.41265629 103879250.89350887 -255835794.60433421  517201.14376489  396620.48847283 -211503.66469833    -208.33284516      71.72714816    -473.10553634
N  -74075276.20069018 116283151.45237510 -15282677.70760077  -34549.91769663  162376.11697513 -664090.35161602    -125.45128209      46.45893259     235.77411294
N  -157652846.56821764 221441451.50521362 117057121.79779206 -1178963.92134329  991361.16241642 2569480.61374565    -156.01015035    -276.20556292     330.04802608
N  -114525117.52915962 -93759411.05991581 -218064748.70901045 -471431.93482301 -2257952.99712215 -15348609.97873338  -70449.52516819   27537.27379066  194015.30130781
O  -1119647570.00189543 1024431237.82474959 -180270674.27205461 -6408788.49925913 -1309690.32245632 -105512.83445469 -158329.55200745  158951.78924508  252306.47416217
O  -887683720.12592411 438291028.05230916 241215914.40202153 7317536.30746576 -2279407.89871826 6885376.63294091    6412.14452525    -874.07672490    6229.54731788
O  -933965400.31945562 814677324.35680628 -280601787.28721625 23919469.10643174 -12965966.29042674 -23984354.38770195    -594.67723248    -149.98332385     395.24967804
O  562594279.00719798 -1456508247.77717733 -1399305808.11605906 -2409347.19149774 -2007200.63317509 -7794601.92399410     600.69968263      12.47779105    1931.97487355
O  -938951507.46388125 -484521629.90276122 -597590433.51830471 33032901.51854077 -35470591.98388128 -20491877.87277869    -460.46420663    -213.72162566     219.21104684
O  345591015.21900713 380391753.21136779 24380770.23761058 -10733869.35414944 -19725955.13483430 7526652.35930960    1141.84583227    -293.67550502   -1033.07789877
H  -187640932.27627668 462973575.08862770 395545404.10600287  -39914.32986764   19487.39319510  -44571.57194870    -190.12967409      20.27551951    -188.57933671
H  -328918699.88473326 212776325.39725864 54253684.94157745  -18319.83920007 -124202.75127007   90911.85366870    -311.37150945    -165.48015900     869.09137439
H  -41321272.99014274 -427351064.06116927 278322455.23313367   42830.57893863 -244444.01101971 -140291.68000399     -64.48505980    -135.27330901      15.58128210
H  -88841668.42385873 -140211001.82086203 -249834284.39998341   16424.68887650   21636.76242384  197099.64199587    -313.81717582    1072.43766515    -333.16074547
H  241195653.05828166 -197417284.75795594 -225107874.98297784  321707.36933745   67822.35858057  279062.29136449     -33.57073755      31.45178654      86.02532830
H  59581568.70085783 -139546635.68667549 -25572858.83998229   23371.81876722  102876.88797093  -92594.30836421    -998.40870813    1267.13772024    1250.44461769
