24
Properties=species:S:1:pos:R:3:forces:R:3 energy=-27550.4326723706 free_energy=-27550.4326723706 stress="5.885945289889179e-07 1.5411800822818978e-07 -2.42240874063103e-07 1.5411800822818978e-07 1.0737055804544635e-08 1.0463053845728556e-08 -2.42240874063103e-07 1.0463053845728556e-08 2.1745102992792378e-07" pbc="F F F"
C        0.79737524       1.38720572       0.24685474       0.07424776       0.04868015      -0.03275686
C        1.47277879       0.08704077       0.19506611       0.08576702       0.01945564      -0.18777898
C       -0.66639562       1.30032636       0.02324118       0.04378418       0.02346488       0.02247611
N        1.53125707       2.43352000       0.38179332       0.03981297       0.07760923       0.01754238
C        0.83661410      -1.16945704       0.15057351       0.07218539       0.02789410      -0.08578680
N        2.88330853       0.13789591       0.22672891       0.16626416       0.06011931      -0.41483541
C       -0.59861388      -1.19433627       0.02582293       0.05217203       0.02168221      -0.02020842
N        1.56406578      -2.27940204       0.27594343       0.03893857       0.00334789      -0.05166692
C       -1.35791074       0.04726471      -0.07620083       0.04278814       0.01313603       0.00164697
N       -1.27820180      -2.45126214      -0.01607945       0.04623537       0.02585496       0.00592505
N       -2.66695425      -0.00064596      -0.25442257       0.04644622      -0.00325810       0.00995719
N       -1.38248142       2.51144767      -0.15079342      -0.01067554      -0.00327059       0.02425154
O        3.55700948       0.87214189       0.86629016       0.27589617      -0.22196192      -0.05770974
O        3.54527665      -0.55504545      -0.85426804      -0.47200113      -0.14261807       0.27311343
O       -2.50433884      -2.51116524      -0.10983529       0.04427917       0.02269006       0.02139048
O       -0.62812167      -3.49666092       0.04167590       0.03981150       0.01879265       0.00814704
O       -2.60089477       2.51046625      -0.39316338      -0.01042413      -0.04509862       0.00799544
O       -0.79123999       3.58121881      -0.07196326      -0.05760235       0.02802708       0.03178482
H        0.97151552       3.26992913       0.37535926      -0.18421196       0.00785939      -0.05174364
H        4.44954026      -0.18387771      -0.88128386      -0.45165195       0.06188397       0.51536021
H        1.10382238      -3.17271619       0.22640229      -0.00733997       0.02009506      -0.01123879
H        2.55684746      -2.19661815       0.36092563       0.03708643      -0.04102389      -0.03761354
H       -3.13972578       0.88841886      -0.35053956       0.02813538      -0.01033222       0.01070884
H       -3.11273507      -0.90349667      -0.28696052       0.06005657      -0.01302920       0.00103961
