24
Properties=species:S:1:pos:R:3:forces:R:3 energy=-27551.466621682386 free_energy=-27551.466621682386 stress="6.810234070030468e-08 1.0405566533591364e-08 -1.6509324015568968e-08 1.0405566533591364e-08 -4.709576019097689e-10 -8.239810715062258e-09 -1.6509324015568968e-08 -8.239810715062258e-09 -3.0130339429060104e-08" pbc="F F F"
C        0.65123853       1.22496672       0.25238926       0.00191907       0.00162438       0.00506212
C        1.34671982       0.00733142       0.47114458       0.00179899       0.00192471       0.00866822
C       -0.72323373       1.25175694      -0.04447455       0.00350168       0.00030247      -0.00334097
N        1.57532593       2.12478024       0.45450262      -0.00086854       0.00250821       0.01477469
C        0.70806759      -1.28159811       0.29485037       0.00377975       0.00192956       0.00416098
N        2.56866132       0.21181613       0.83458176      -0.00072098       0.00233897       0.01934757
C       -0.69432082      -1.25917669       0.06558210       0.00497033       0.00065599      -0.00364756
N        1.50545487      -2.31831708       0.37050434       0.00366692       0.00204054       0.00976310
C       -1.42535625      -0.00039099      -0.08174181       0.00457129      -0.00000451      -0.00571857
N       -1.36950831      -2.51258941      -0.03460336       0.00597187       0.00014205      -0.00519201
N       -2.72407281       0.00536585      -0.25712062       0.00473548      -0.00084013      -0.00908360
N       -1.32250812       2.52192827      -0.17893059       0.00278579       0.00003234      -0.00374114
O        2.77523252       1.52682936       0.82915616      -0.00246221       0.00296735       0.02384768
O        4.27008407      -0.19732179      -1.23122996      -0.01236240       0.01652588       0.01740596
O       -2.58782199      -2.56165791      -0.17517241       0.00635282      -0.00052974      -0.00902989
O       -0.69606938      -3.54519513       0.03126334       0.00613366       0.00048968      -0.00225237
O       -2.52949350       2.63542864      -0.38062661       0.00337364      -0.00070373      -0.00806013
O       -0.57142952       3.49765441      -0.08613539       0.00179581       0.00032666       0.00062307
H        1.53512220       3.13291559       0.41603640      -0.00103010       0.00253116       0.01416541
H        5.12871774      -0.15117499      -1.66094566      -0.05546096      -0.03586610      -0.07480623
H        1.10557005      -3.24031808       0.26136865       0.00493057       0.00187511       0.00722509
H        2.49933157      -2.16341530       0.45169588       0.00282518       0.00203698       0.02021233
H       -3.17350381       0.90352320      -0.36239479       0.00439352      -0.00114736      -0.01011418
H       -3.20949553      -0.87729189      -0.28724495       0.00539882      -0.00116048      -0.01026958
