24
Properties=species:S:1:pos:R:3:forces:R:3 energy=-27550.73777092432 free_energy=-27550.73777092432 stress="2.5765074731347973e-09 1.1563135429629663e-09 -3.2519868441771927e-09 1.1563135429629663e-09 -1.1855868981216084e-09 1.1219001882728347e-09 -3.2519868441771927e-09 1.1219001882728347e-09 5.1194618616463166e-11" pbc="F F F"
C        0.78568241       1.45284316       0.17344876      -0.00127752       0.00009448       0.00168690
C        1.42740416       0.22144190       0.60258477      -0.00309009      -0.00199245       0.00283094
C       -0.69328055       1.34104638       0.09154628      -0.00013977       0.00292512      -0.00310153
N        1.51906422       2.46274398      -0.13299518      -0.00042291       0.00033739       0.00223765
C        0.87379956      -1.05580120       0.33581381       0.00395029      -0.00444360      -0.00624675
N        2.65379853       0.14113532       1.20114989       0.00106954      -0.00033639      -0.00079136
C       -0.49364701      -1.11796774      -0.08084145       0.00021637       0.00022607      -0.00070018
N        1.64572199      -2.10548309       0.50052077       0.00460909      -0.00293158      -0.00014111
C       -1.32460767       0.07999481      -0.05919340       0.00073748       0.00081807       0.00621167
N       -1.06419648      -2.37258283      -0.43985749      -0.00296192      -0.00086758      -0.00056674
N       -2.64108384      -0.03346074      -0.17160874       0.00033675      -0.00070919       0.00051928
N       -1.46648475       2.52004630       0.11128586       0.00006475       0.00083384      -0.00019664
O        3.20109720       1.17660681       1.51790171      -0.00232080      -0.00042047      -0.00077182
O        8.49786152      -1.30465390       0.28788463       0.00000000       0.00000000       0.00000000
O       -2.20689348      -2.43148335      -0.89858527       0.00108008      -0.00471410       0.00113100
O       -0.40354865      -3.39784325      -0.30014678      -0.00226944       0.00634159       0.00166556
O       -2.70749549       2.46393728       0.17680181       0.00299755      -0.00109857       0.00410680
O       -0.90827300       3.61017972       0.08154525       0.00160749       0.00075141      -0.00265909
H        0.92147529       3.24565579      -0.35834332      -0.00141024       0.00032540      -0.00065302
H        9.28688010      -0.92757483      -0.11185280       0.00000000       0.00000000       0.00000000
H        1.29459579      -3.01348556       0.26501978       0.00019010      -0.00172944       0.00307352
H        2.62180179      -1.91375918       0.66694597       0.00453198       0.00210408       0.00084702
H       -3.16524866       0.82796157      -0.10326067      -0.00144955      -0.00067410      -0.00245531
H       -3.02093476      -0.93471982      -0.40343818      -0.00140239       0.00355701      -0.00604550
