24
Properties=species:S:1:pos:R:3:forces:R:3 energy=-27551.930635802353 free_energy=-27551.930635802353 stress="1.1362201188947898e-08 -1.0978590158461271e-08 3.821911659675636e-09 -1.0978590158461271e-08 1.7785667519018543e-08 -6.478391773174777e-09 3.821911659675636e-09 -6.478391773174777e-09 3.173732372199842e-09" pbc="F F F"
C        0.81856078       1.20909764       0.54306076      -0.00166909       0.00188800       0.00921347
C        1.48932833       0.01494476       0.90849540      -0.00401157       0.00138833      -0.00042680
C       -0.46113717       1.19821475      -0.04768643       0.00220268      -0.00231964      -0.00768806
N        1.65745783       2.14293271       0.89651430      -0.00157648      -0.00116652      -0.00130115
C        0.92740648      -1.29307907       0.64132960       0.00274340      -0.00012128      -0.00317942
N        2.66239665       0.26322712       1.39277060      -0.00160194       0.00450552       0.00128995
C       -0.37615876      -1.31008064       0.06552333      -0.00255931      -0.00509546      -0.00067928
N        1.67664536      -2.31845498       0.95342602      -0.00422716       0.00449992      -0.00193022
C       -1.07844887      -0.07623370      -0.28188753       0.00044272      -0.00459346       0.00401784
N       -0.96463463      -2.57833062      -0.20399059      -0.00306951      -0.00288065       0.00610561
N       -2.27322513      -0.11105180      -0.81977933       0.00125660      -0.00322707      -0.00165513
N       -1.01835149       2.43895950      -0.40193868       0.00596857       0.00370348       0.00106946
O        2.83826110       1.58085762       1.38634625      -0.00134696       0.00347454      -0.00185060
O        8.49786152      -1.30465390       0.28788463       0.00000000       0.00000000       0.00000000
O       -2.07660272      -2.66395158      -0.72277591      -0.00340032       0.00335618      -0.00130918
O       -0.33600985      -3.59664951       0.10395000       0.00564533       0.00402814      -0.00128493
O       -2.13510736       2.51541053      -0.91803595       0.00127168      -0.00146410       0.00015732
O       -0.33128807       3.43928061      -0.16654892       0.00639497      -0.00192934       0.00211216
H        1.65084669       3.13532861       0.69857527      -0.00273700      -0.00572476      -0.00141786
H        9.28688010      -0.92757483      -0.11185280       0.00000000       0.00000000       0.00000000
H        1.30729936      -3.24619266       0.77740965       0.00171172       0.00468729      -0.00347152
H        2.60618674      -2.15931125       1.30811965      -0.00051723      -0.00292509      -0.00106572
H       -2.69857214       0.77597365      -1.05080617       0.00106910      -0.00141524       0.00016804
H       -2.69014052      -1.01113197      -1.00045960      -0.00140930       0.00180556       0.00072087
