24
Properties=species:S:1:pos:R:3:forces:R:3 energy=-27551.066674832913 free_energy=-27551.066674832913 stress="1.237588696592694e-08 1.4327906547098265e-08 -9.129561742790563e-10 1.4327906547098265e-08 -3.345857403052716e-09 2.6884105096631107e-09 -9.129561742790563e-10 2.6884105096631107e-09 -6.847285781686147e-10" pbc="F F F"
C        0.70507736       1.27464316      -0.52207657       0.00083294       0.00171540       0.00267701
C        1.41443421       0.03110658      -0.09637179       0.00106018      -0.00098199       0.00182031
C       -0.69050591       1.26512331      -0.04784294      -0.00252725      -0.00094548      -0.00096189
N        1.36564457       2.11145982      -1.21192207      -0.00097707       0.00044479      -0.00319084
C        0.73834240      -1.24817564      -0.30135541       0.00581486      -0.00013683       0.00519824
N        2.58121174       0.14867067       0.50328925       0.00182516      -0.00556462      -0.00124855
C       -0.65554733      -1.21768205      -0.16742687       0.00626052      -0.00164432       0.00024092
N        1.45365909      -2.30961048      -0.63558298      -0.00225371      -0.00234171       0.00021358
C       -1.34289808       0.04487513       0.19538016      -0.00015504      -0.00475366       0.00097383
N       -1.40001619      -2.42833658      -0.34807328       0.00384059      -0.00049733       0.00040777
N       -2.56216256      -0.01645783       0.70042968      -0.00237028       0.00086076      -0.00042945
N       -1.37421486       2.50269785       0.09972422       0.00030435       0.00308365      -0.00111967
O        3.20119052       1.15320359       0.78964143      -0.00598587      -0.00437366       0.00220289
O        3.20835844      -1.04477610       0.89266232      -0.00077320      -0.00090150       0.00242532
O       -2.60867908      -2.45566882      -0.13824406       0.00563482       0.00345242       0.00087302
O       -0.80668036      -3.44250209      -0.71713113       0.00000793       0.00362708       0.00080691
O       -2.46897133       2.54702365       0.67197714       0.00416868      -0.00446377       0.00313475
O       -0.84993583       3.51823946      -0.33683747      -0.00557851       0.00575800      -0.00455295
H        0.79527143       2.92558395      -1.41743000      -0.00279744       0.00220995       0.00217367
H        3.99062092      -0.66197133       1.31689302       0.00098715       0.00228708      -0.00137216
H        0.96547245      -3.18330989      -0.76496625      -0.00093014       0.00056199       0.00030401
H        2.45144226      -2.23954720      -0.66612544      -0.00444842      -0.00253828      -0.00653251
H       -3.00846109       0.86777840       0.89810662      -0.00161029       0.00330430      -0.00280490
H       -3.03496279      -0.90277611       0.69714710      -0.00032995       0.00183774      -0.00123929
