24
Properties=species:S:1:pos:R:3:forces:R:3 energy=-27551.764466899283 free_energy=-27551.764466899283 stress="4.61928940832658e-07 -4.225111971329982e-08 3.060195726582471e-08 -4.225111971329982e-08 -1.0169140557787345e-07 -1.52874148059294e-08 3.060195726582471e-08 -1.52874148059294e-08 2.6810760795110662e-08" pbc="F F F"
C        0.85043987       1.17028104       0.18428066       0.01761823      -0.03857512      -0.00556102
C        1.49455996      -0.10488409      -0.12661536       0.00355565      -0.02459294      -0.00798129
C       -0.60733051       1.21462442       0.02970215       0.02481669      -0.01385083       0.01873061
N        1.60126286       2.16825129       0.55007490       0.04043705      -0.04015817      -0.01863658
C        0.71500528      -1.34133429      -0.14955319       0.00610278      -0.01540097      -0.01055323
N        2.84720988      -0.13555009      -0.30015148       0.01732751      -0.00295750       0.02306991
C       -0.69842846      -1.26695741      -0.01526784       0.00421886      -0.00697388      -0.00479033
N        1.33885363      -2.49501684      -0.27145982      -0.00074569      -0.01822957      -0.02057048
C       -1.39049515       0.01722529      -0.02320805       0.01280097      -0.00786718      -0.00115360
N       -1.45419339      -2.48306692       0.07825154       0.00005847       0.00027931       0.00614416
N       -2.70579796       0.04950964      -0.05592351       0.01215657       0.01011872      -0.00979564
N       -1.25856840       2.48088385      -0.04713919       0.04227578      -0.00316186       0.02375937
O        3.48498276      -1.11297695      -0.67734549       0.02972486      -0.00050916       0.02874665
O        3.61580965       0.93633924      -0.08211982      -0.01963904      -0.01493805       0.10845493
O       -2.68313555      -2.46799698      -0.01640986      -0.00054738       0.00600254      -0.00446196
O       -0.87769393      -3.55123209       0.26312464      -0.00647282       0.00089073       0.02776980
O       -2.49161585       2.54739237      -0.14527632       0.04357590       0.01102600       0.01387033
O       -0.59668102       3.51024610      -0.04016100       0.05402312      -0.01146251       0.03706719
H        1.09111509       3.03056020       0.64437388       0.07821192      -0.02003463       0.01210036
H        2.96130538       1.64033265       0.30147090      -0.38922247       0.19932402      -0.17604705
H        0.80724376      -3.34334212      -0.16818334       0.00485469      -0.01922396      -0.00453541
H        2.33398060      -2.47404557      -0.42721645       0.00000646      -0.02498608      -0.01295522
H       -3.13608602       0.96234379      -0.06593322       0.02643893       0.01661515      -0.00503112
H       -3.19689967      -0.83040884      -0.08057751      -0.00157704       0.01866593      -0.01764038
