72
Lattice="9.0 0.0 0.0 0.0 9.0 0.0 0.0 0.0 9.0" Properties=species:S:1:pos:R:3:momenta:R:3:forces:R:3 energy=-82644.27348938493 free_energy=-82644.27348938493 stress="0.00494807449200295 0.027103876129381303 -0.007854382967392019 0.027103876129381303 0.015819002435561245 -0.01576844013756771 -0.007854382967392019 -0.01576844013756771 0.006548459668749799" pbc="T T T"
C        3.42431684      11.80758087      -5.38776025      -0.09407515       1.62371834       0.86720015      -2.23318455      -0.72464494       1.06742640
C        3.04128252      10.66096432      -4.54609884      -1.76221319       0.80890037       0.68835240      -3.92993771       3.77874913       1.77955154
C        3.13030098      13.13801602      -4.94206430      -1.68350408      -2.00348216       0.01897175      -0.27698549      -0.96229905       0.81529328
N        3.88187927      11.65967936      -6.64897717       1.54747635      -1.96784930       0.08921467      -0.37261769       2.26804023       1.70722470
C        1.82260728      10.83058017      -3.54126986      -0.45301529      -2.46644473      -1.18083258       4.76124121      -2.23406361      -2.75439304
N        3.77263146       9.53985636      -4.63719341      -0.18251328       2.17894889      -2.29429570       0.13922272      -1.81568681       0.43679340
C        1.55659656      12.14187864      -3.32977667       1.04898340      -0.14991390      -2.58382799      -1.81135357       1.85347390       1.62563647
N        1.41788983       9.67065267      -3.04836001       0.01071208       2.98511105      -0.70946721       3.83902209      -1.41390757      -1.93045634
C        2.20560343      13.32852696      -3.90382699      -0.90569466      -1.86538515       0.31612500       0.83616126       2.53492971       0.16807697
N        0.39028188      12.42214471      -2.40040235      -0.10206166      -0.45184552      -0.95391509       3.58767091      -6.35689967       1.13024035
N        2.09289475      14.79160755      -3.49455695      -0.58494433       2.11941666       2.53620376       0.83646867      -5.98533600      -3.84456417
N        3.67852677      14.27349433      -5.80203723      -0.62970375       0.14169938      -0.93119063      -0.79451614       2.61434454      -2.31058309
O        4.61144040       9.66012969      -5.53823845      -0.12255908      -0.14892351       1.31701371       0.90887938      -3.59230052       1.18641334
O        3.58760574       8.52941206      -3.82299376      -0.99789499      -0.20544576       0.39696178       1.26795191       2.40458963      -2.59137425
O       -0.01138426      11.56841072      -1.52498010      -1.35074224      -0.82373628      -0.09039002       0.60039624       2.83648715      -3.03052697
O       -0.01397202      13.47132430      -2.66653406       0.03397742       0.71672381      -0.62678646      -3.57045831       4.47885298       0.30381615
O        2.90273879      14.66104433      -6.66290311      -2.02853156      -0.60378686      -0.57367109      -1.66185264      -1.44069337       0.15581629
O        4.74099510      14.90243383      -5.79797882       0.07165527       0.80240395       0.55738248       0.75100850      -2.16647266       2.56852734
H        3.88333587      10.76418914      -7.07213110      -0.29343116       0.06987608      -0.60009449       0.99349329      -0.39365507      -0.12909814
H        4.60354995      12.34970116      -6.65385177      -0.21741323      -0.15205922       0.19091292       0.91483622      -0.19159790      -1.91800375
H        0.66318907       9.41986281      -2.53371032       0.58751688       0.18374733      -0.67509814      -2.72008164       0.24476363       2.03088598
H        2.19753771       8.88056397      -3.11701214       0.40486016      -1.01107395       0.09455652      -2.00137577       2.19032496      -0.36673681
H        3.02143846      15.10248869      -3.66337410      -0.05911870       0.50858787      -0.30946035       0.24640143       1.17838814       0.80354350
H        1.57943600      14.96000258      -2.70796466       0.07341355       0.48766426      -0.74510527      -0.76056523       0.65898757       2.49761705
C       -1.45820410      -8.45740225       4.25702669       0.30878057      -0.64158885       0.54620225      -1.14618241      -0.86756024       0.82425734
C       -1.66162660      -7.07541917       4.02932113       0.05518869      -0.71697421       0.13620909       1.65979065       2.19731475      -1.66917377
C       -0.64486718      -9.13410727       3.36868526       2.32322462      -1.11951301       0.68088935       5.13018302       4.93720093      -2.43679818
N       -2.01074829      -9.21693712       5.24684283       0.46256132      -0.22625431      -1.36203713      -0.43264362      -0.45536131      -1.56148340
C       -0.81706850      -6.28990986       2.88140154       1.53203002       0.09686960      -0.09542947      -2.35358395       0.52107541       4.74626759
N       -2.65401959      -6.37449443       4.81543628       1.46162429       0.98970342       0.15642610      -2.45078414      -1.95021856       4.33255340
C        0.19814759      -6.94090057       2.21175680      -0.41555523       0.47526833      -0.13906896      -1.14750256      -1.96809730       2.88619722
N       -0.90724037      -4.94787667       2.87644100       2.92876918       0.39917095      -2.09760110      -1.97365402      -2.34714139       2.01703011
C        0.46093555      -8.33549744       2.55200453       1.57834577      -2.04170283       0.94560376      -8.10425025       0.24363657       3.31335874
N        0.93986090      -6.31078155       1.26208996       1.05015623      -1.35985308       0.45230448      -0.69485903       1.14981932      -4.43631494
N        1.25729109      -9.03736210       1.93346388      -1.59175835      -0.27439425       2.24619283       4.63692842      -0.01964600      -1.79839021
N       -0.40529006     -10.44741619       3.50694907       0.06376622      -1.27556644      -0.97951636       1.81193865      -5.09707584      -3.40322217
O       -3.01320248      -6.76791418       6.04380586      -0.36781164       0.79212137      -0.64127247       3.10447999      -0.84033531      -3.00357515
O       -3.39955739      -5.51567107       4.44159613       0.31680959       1.04390877      -1.91561818       1.78840548       1.71611061      -2.60216088
O        0.58977460      -5.17083116       0.82077317       1.74538734      -2.25321268      -0.46067138       1.42206666      -2.21300476       1.56662572
O        1.70545649      -7.07341418       0.63381210       1.03082283      -1.69866887       1.95594498       0.29380961       2.96460853       0.10194034
O        0.68245297     -11.07723060       3.10086080       0.24580339       0.25458557       1.16431970      -3.02053960       2.07866126       2.46149981
O       -1.41968912     -11.12426699       3.60717008       2.11728646      -0.52221233       0.37786311      -0.68824766      -1.10461876       1.51445874
H       -2.30134985     -10.25664800       5.00567286      -0.06807766       0.12390517       0.00859432       0.92196429       3.29305508       0.88888231
H       -2.38571236      -8.58527495       5.92425828      -0.32619754       0.10206854       0.16392263      -0.91269398      -0.56342335       0.75381070
H       -0.67834856      -4.45741280       2.09605985       0.01351818       0.20191808      -0.24324463       1.61759625       1.31063722      -2.64617604
H       -1.63507974      -4.48215147       3.37834111      -0.15762906      -0.86392785       0.26013523      -0.45695449      -0.13234093       0.55816463
H        1.97964505      -8.42006176       1.59895962      -0.04338554       0.59251750      -0.27184559       0.71831593      -0.92737531      -1.29356091
H        1.35151425     -10.00441618       2.10545448      -0.28598795       0.13542670       0.54739402       0.52991672      -1.35112458       0.13887084
C       15.14150740      -3.25742485      -0.64031087       0.38609541       0.03085428      -0.02304843      -3.38224701      -0.50585665      -1.28413364
C       13.58700871      -3.26302003      -0.55122813       0.45677043       0.38764135       2.69132916       2.65003326      -0.13251413      -0.83036440
C       15.67632148      -2.04898987      -0.44834656       1.25440171      -0.56031805       0.96619318       2.50151028       5.35476233       2.51810394
N       15.84245819      -4.30653448      -1.06135077      -0.47537493      -0.22188671       1.93449482      -0.47600927      -3.93696863      -0.54399289
C       13.07197065      -1.98706689      -0.57209132      -0.59841495      -0.17426418      -2.68631786      -5.69722205      -2.97274719       0.33789676
N       12.74372614      -4.47199606      -0.90827046      -2.51834437      -0.46848212      -0.17322866       2.62626030      -0.24481955       0.86036663
C       13.77018768      -0.80415678      -0.71170988       0.49500824       1.28241304       1.94488541      -6.41346375       1.82722104       1.22056352
N       11.65455394      -2.02141967      -0.43067141      -1.46182114      -0.17875649      -1.19589594      -0.98230573      -1.57614358       1.26285219
C       14.97571605      -0.66277442      -0.25468060      -1.84756326       0.71012347      -0.21367859       6.17877533      -2.08081346      -3.03729127
N       12.79696658       0.31752619      -0.48295809      -0.63225900       3.14001515       0.31333930      -1.24769335      -0.90054959      -1.89820388
N       15.69240626       0.48832464      -0.52544767       0.13798348       3.79543296      -1.81254828      -1.28385643       1.79051615       0.24670272
N       17.20696131      -1.81129885      -0.39659660      -1.30960500      -0.03182077      -0.62050363       2.36251964      -1.63705075       1.08458685
O       13.48137864      -5.41247732      -1.30002244       0.45638435       1.21912313      -0.70237879      -1.99403571       0.43202350       0.26597193
O       11.53997759      -4.60888344      -0.72649256      -1.53595227       0.67239172       1.65848177       1.49494583       0.74752382      -0.67714580
O       11.60091647       0.18814621      -0.89648739      -0.20005434      -1.12338800       0.86536878       3.36053711       2.28909998       0.66853926
O       13.25286116       1.27955021       0.08037053      -0.63382475      -3.26641583       0.44451900      -0.54185043       0.56270025       0.14465815
O       17.74564943      -1.40542442      -1.41837032       0.61572294       1.34855304       0.34125654      -0.84647056       0.18283437      -0.16271526
O       17.99055053      -2.08740656       0.60137239       0.52841834       0.85448101      -3.65175553      -3.59396116       0.17905744      -2.32250754
H       16.49709660      -4.36619940      -1.90793266       0.18794544      -0.23368899       0.40192857      -0.91715915       0.99964003       2.14940679
H       15.19277604      -5.15921456      -1.03356456      -0.00394615       0.04707804       0.69187982       1.68711378       1.83619931      -0.51660510
H       11.28046980      -2.87192806       0.06132408      -0.22809664       0.37926413       0.48914252       1.02808905       1.03517355      -0.95400803
H       10.89165844      -1.30133246      -0.42201673       0.38397475      -0.64671050       1.27255062       1.94600526      -0.76206602      -0.29306388
H       16.47083279       0.72378139      -0.01487793       0.06971294      -0.00604631       0.51135947       2.46472615      -0.75491839       1.35741322
H       15.29124066       1.45584070      -0.59358757       0.18398823       0.05395970       0.31817003      -0.72756640      -2.07147426      -0.25121831
